/*---------------------------------------------------------------------------*\
| =========                 |                                                 |
| \\      /  F ield         | OpenFOAM: The Open Source CFD Toolbox           |
|  \\    /   O peration     | Version:  2.3.1                                 |
|   \\  /    A nd           | Web:      www.OpenFOAM.org                      |
|    \\/     M anipulation  |                                                 |
\*---------------------------------------------------------------------------*/
Build  : 2.3.1-bcfaaa7b8660
Exec   : mySolver -parallel
Date   : May 03 2015
Time   : 10:07:07
Host   : "lordvon-XPS-8300"
PID    : 11525
Case   : /home/lordvon/Desktop/OpenFOAM_Tutorials/CompilingCustomSolver/mixerVesselAMI2D
nProcs : 4
Slaves : 
3
(
"lordvon-XPS-8300.11526"
"lordvon-XPS-8300.11527"
"lordvon-XPS-8300.11528"
)

Pstream initialized with:
    floatTransfer      : 0
    nProcsSimpleSum    : 0
    commsType          : nonBlocking
    polling iterations : 0
sigFpe : Enabling floating point exception trapping (FOAM_SIGFPE).
fileModificationChecking : Monitoring run-time modified files using timeStampMaster
allowSystemOperations : Allowing user-supplied system call operations

// * * * * * * * * * * * * * * * * * * * * * * * * * * * * * * * * * * * * * //
Create time

Create mesh for time = 0

Selecting dynamicFvMesh solidBodyMotionFvMesh
Selecting solid-body motion function rotatingMotion
Applying solid body motion to cellZone rotor

PIMPLE: no residual control data found. Calculations will employ 2 corrector loops

Reading field p

Reading field U

Reading/calculating face flux field phi

AMI: Creating addressing and weights between 96 source faces and 96 target faces
AMI: Patch source sum(weights) min/max/average = 1, 1, 1
AMI: Patch target sum(weights) min/max/average = 1, 1, 1
Selecting incompressible transport model Newtonian
Selecting turbulence model type laminar
Reading/calculating face velocity Uf

No finite volume options present

Courant Number mean: 0 max: 0

Starting time loop

Courant Number mean: 0 max: 0
deltaT = 0.00119048
Time = 0.00119048

solidBodyMotionFunctions::rotatingMotion::transformation(): Time = 0.00119048 transformation: ((0 0 0) (0.999993 (0 0 0.00373999)))
AMI: Creating addressing and weights between 96 source faces and 96 target faces
AMI: Patch source sum(weights) min/max/average = 1.00011, 1.00011, 1.00011
AMI: Patch target sum(weights) min/max/average = 1.00011, 1.00011, 1.00011
GAMG:  Solving for pcorr, Initial residual = 1, Final residual = 0.013378, No Iterations 6
time step continuity errors : sum local = 2.80521e-05, global = -1.17252e-12, cumulative = -1.17252e-12
PIMPLE: iteration 1
smoothSolver:  Solving for Ux, Initial residual = 1, Final residual = 0.00261418, No Iterations 2
smoothSolver:  Solving for Uy, Initial residual = 1, Final residual = 0.00249604, No Iterations 2
GAMG:  Solving for p, Initial residual = 1, Final residual = 0.0066865, No Iterations 6
time step continuity errors : sum local = 1.40264e-05, global = 1.00543e-09, cumulative = 1.00426e-09
PIMPLE: iteration 2
smoothSolver:  Solving for Ux, Initial residual = 0.0410666, Final residual = 3.75594e-07, No Iterations 4
smoothSolver:  Solving for Uy, Initial residual = 0.0410802, Final residual = 5.39992e-07, No Iterations 4
GAMG:  Solving for p, Initial residual = 0.102528, Final residual = 6.73084e-07, No Iterations 16
time step continuity errors : sum local = 4.89156e-09, global = 1.64448e-09, cumulative = 2.64875e-09
ExecutionTime = 0.03 s  ClockTime = 0 s

Courant Number mean: 0.0335246 max: 0.339281
deltaT = 0.00135356
Time = 0.00254403

solidBodyMotionFunctions::rotatingMotion::transformation(): Time = 0.00254403 transformation: ((0 0 0) (0.999968 (0 0 0.00799224)))
AMI: Creating addressing and weights between 96 source faces and 96 target faces
AMI: Patch source sum(weights) min/max/average = 1.0002, 1.0002, 1.0002
AMI: Patch target sum(weights) min/max/average = 1.0002, 1.0002, 1.0002
GAMG:  Solving for pcorr, Initial residual = 1, Final residual = 0.00996869, No Iterations 5
time step continuity errors : sum local = 2.22732e-07, global = 2.13851e-09, cumulative = 4.78726e-09
PIMPLE: iteration 1
smoothSolver:  Solving for Ux, Initial residual = 0.358496, Final residual = 0.00041759, No Iterations 2
smoothSolver:  Solving for Uy, Initial residual = 0.358476, Final residual = 0.000433761, No Iterations 2
GAMG:  Solving for p, Initial residual = 0.729042, Final residual = 0.00351377, No Iterations 7
time step continuity errors : sum local = 1.4507e-05, global = 1.21231e-09, cumulative = 5.99957e-09
PIMPLE: iteration 2
smoothSolver:  Solving for Ux, Initial residual = 0.0495059, Final residual = 3.15785e-07, No Iterations 4
smoothSolver:  Solving for Uy, Initial residual = 0.0495266, Final residual = 3.90521e-07, No Iterations 4
GAMG:  Solving for p, Initial residual = 0.338199, Final residual = 7.66165e-07, No Iterations 16
time step continuity errors : sum local = 1.70862e-09, global = 4.23123e-10, cumulative = 6.42269e-09
ExecutionTime = 0.05 s  ClockTime = 0 s

Courant Number mean: 0.0379507 max: 0.377686
deltaT = 0.00152275
Time = 0.00406678

solidBodyMotionFunctions::rotatingMotion::transformation(): Time = 0.00406678 transformation: ((0 0 0) (0.999918 (0 0 0.0127759)))
AMI: Creating addressing and weights between 96 source faces and 96 target faces
AMI: Patch source sum(weights) min/max/average = 1.00025, 1.00025, 1.00025
AMI: Patch target sum(weights) min/max/average = 1.00025, 1.00025, 1.00025
GAMG:  Solving for pcorr, Initial residual = 1, Final residual = 0.0106444, No Iterations 7
time step continuity errors : sum local = 3.1423e-07, global = 5.26069e-09, cumulative = 1.16834e-08
PIMPLE: iteration 1
smoothSolver:  Solving for Ux, Initial residual = 0.0271177, Final residual = 5.98436e-05, No Iterations 2
smoothSolver:  Solving for Uy, Initial residual = 0.0270232, Final residual = 6.20258e-05, No Iterations 2
GAMG:  Solving for p, Initial residual = 0.189611, Final residual = 0.00146547, No Iterations 4
time step continuity errors : sum local = 2.24899e-06, global = 2.97245e-09, cumulative = 1.46558e-08
PIMPLE: iteration 2
smoothSolver:  Solving for Ux, Initial residual = 0.00149795, Final residual = 2.99895e-07, No Iterations 3
smoothSolver:  Solving for Uy, Initial residual = 0.00151168, Final residual = 3.37671e-07, No Iterations 3
GAMG:  Solving for p, Initial residual = 0.0339203, Final residual = 6.54253e-07, No Iterations 17
time step continuity errors : sum local = 3.36374e-09, global = 2.60628e-09, cumulative = 1.72621e-08
ExecutionTime = 0.07 s  ClockTime = 0 s

Courant Number mean: 0.0424923 max: 0.413612
deltaT = 0.00168304
Time = 0.00574982

solidBodyMotionFunctions::rotatingMotion::transformation(): Time = 0.00574982 transformation: ((0 0 0) (0.999837 (0 0 0.0180627)))
AMI: Creating addressing and weights between 96 source faces and 96 target faces
AMI: Patch source sum(weights) min/max/average = 1.00026, 1.00026, 1.00026
AMI: Patch target sum(weights) min/max/average = 1.00026, 1.00026, 1.00026
GAMG:  Solving for pcorr, Initial residual = 1, Final residual = 0.0117146, No Iterations 5
time step continuity errors : sum local = 4.27291e-07, global = 1.18238e-08, cumulative = 2.90859e-08
PIMPLE: iteration 1
smoothSolver:  Solving for Ux, Initial residual = 0.0225006, Final residual = 5.29868e-05, No Iterations 2
smoothSolver:  Solving for Uy, Initial residual = 0.0224981, Final residual = 5.19706e-05, No Iterations 2
GAMG:  Solving for p, Initial residual = 0.111469, Final residual = 0.000493311, No Iterations 4
time step continuity errors : sum local = 7.44623e-07, global = 4.84123e-09, cumulative = 3.39271e-08
PIMPLE: iteration 2
smoothSolver:  Solving for Ux, Initial residual = 0.00113079, Final residual = 2.79698e-07, No Iterations 3
smoothSolver:  Solving for Uy, Initial residual = 0.00112994, Final residual = 3.00459e-07, No Iterations 3
GAMG:  Solving for p, Initial residual = 0.0325491, Final residual = 6.02163e-07, No Iterations 11
time step continuity errors : sum local = 3.68529e-09, global = 2.70602e-09, cumulative = 3.66331e-08
ExecutionTime = 0.09 s  ClockTime = 0 s

Courant Number mean: 0.0467294 max: 0.446343
deltaT = 0.00184804
Time = 0.00759786

solidBodyMotionFunctions::rotatingMotion::transformation(): Time = 0.00759786 transformation: ((0 0 0) (0.999715 (0 0 0.0238672)))
AMI: Creating addressing and weights between 96 source faces and 96 target faces
AMI: Patch source sum(weights) min/max/average = 1.00021, 1.00021, 1.00021
AMI: Patch target sum(weights) min/max/average = 1.00021, 1.00021, 1.00021
GAMG:  Solving for pcorr, Initial residual = 1, Final residual = 0.0106391, No Iterations 7
time step continuity errors : sum local = 4.85247e-07, global = 1.8065e-08, cumulative = 5.46981e-08
PIMPLE: iteration 1
smoothSolver:  Solving for Ux, Initial residual = 0.0217134, Final residual = 5.10468e-05, No Iterations 2
smoothSolver:  Solving for Uy, Initial residual = 0.0217118, Final residual = 4.93735e-05, No Iterations 2
GAMG:  Solving for p, Initial residual = 0.0935729, Final residual = 0.000803111, No Iterations 3
time step continuity errors : sum local = 1.30938e-06, global = 2.88587e-09, cumulative = 5.7584e-08
PIMPLE: iteration 2
smoothSolver:  Solving for Ux, Initial residual = 0.00113991, Final residual = 3.15472e-07, No Iterations 3
smoothSolver:  Solving for Uy, Initial residual = 0.00113897, Final residual = 3.208e-07, No Iterations 3
GAMG:  Solving for p, Initial residual = 0.0344008, Final residual = 7.82599e-07, No Iterations 11
time step continuity errors : sum local = 2.2385e-09, global = -9.53273e-10, cumulative = 5.66307e-08
ExecutionTime = 0.11 s  ClockTime = 0 s

Courant Number mean: 0.0510317 max: 0.479145
deltaT = 0.00192504
Time = 0.00952291

solidBodyMotionFunctions::rotatingMotion::transformation(): Time = 0.00952291 transformation: ((0 0 0) (0.999553 (0 0 0.0299127)))
AMI: Creating addressing and weights between 96 source faces and 96 target faces
AMI: Patch source sum(weights) min/max/average = 1.00008, 1.00008, 1.00008
AMI: Patch target sum(weights) min/max/average = 1.00008, 1.00008, 1.00008
GAMG:  Solving for pcorr, Initial residual = 1, Final residual = 0.0111653, No Iterations 5
time step continuity errors : sum local = 5.71587e-07, global = 2.00405e-08, cumulative = 7.66712e-08
PIMPLE: iteration 1
smoothSolver:  Solving for Ux, Initial residual = 0.0208841, Final residual = 4.4774e-05, No Iterations 2
smoothSolver:  Solving for Uy, Initial residual = 0.0208842, Final residual = 4.33499e-05, No Iterations 2
GAMG:  Solving for p, Initial residual = 0.0782766, Final residual = 0.000386791, No Iterations 5
time step continuity errors : sum local = 6.23584e-07, global = -2.21272e-09, cumulative = 7.44585e-08
PIMPLE: iteration 2
smoothSolver:  Solving for Ux, Initial residual = 0.00111453, Final residual = 3.62206e-07, No Iterations 3
smoothSolver:  Solving for Uy, Initial residual = 0.00111494, Final residual = 3.55924e-07, No Iterations 3
GAMG:  Solving for p, Initial residual = 0.0335398, Final residual = 7.42282e-07, No Iterations 11
time step continuity errors : sum local = 2.8433e-09, global = -1.759e-09, cumulative = 7.26995e-08
ExecutionTime = 0.13 s  ClockTime = 0 s

Courant Number mean: 0.0529387 max: 0.487534
deltaT = 0.00196689
Time = 0.0114898

solidBodyMotionFunctions::rotatingMotion::transformation(): Time = 0.0114898 transformation: ((0 0 0) (0.999349 (0 0 0.0360885)))
AMI: Creating addressing and weights between 96 source faces and 96 target faces
AMI: Patch source sum(weights) min/max/average = 1.0001, 1.0001, 1.0001
AMI: Patch target sum(weights) min/max/average = 1.0001, 1.0001, 1.0001
GAMG:  Solving for pcorr, Initial residual = 1, Final residual = 0.0199608, No Iterations 6
time step continuity errors : sum local = 1.16034e-06, global = 2.50865e-08, cumulative = 9.7786e-08
PIMPLE: iteration 1
smoothSolver:  Solving for Ux, Initial residual = 0.0211877, Final residual = 4.14831e-05, No Iterations 2
smoothSolver:  Solving for Uy, Initial residual = 0.0211872, Final residual = 4.15073e-05, No Iterations 2
GAMG:  Solving for p, Initial residual = 0.0664175, Final residual = 0.000402804, No Iterations 3
time step continuity errors : sum local = 6.57649e-07, global = 1.22323e-09, cumulative = 9.90092e-08
PIMPLE: iteration 2
smoothSolver:  Solving for Ux, Initial residual = 0.000997803, Final residual = 3.47335e-07, No Iterations 3
smoothSolver:  Solving for Uy, Initial residual = 0.000996836, Final residual = 3.42227e-07, No Iterations 3
GAMG:  Solving for p, Initial residual = 0.0264594, Final residual = 8.4698e-07, No Iterations 12
time step continuity errors : sum local = 3.32218e-09, global = 1.90869e-09, cumulative = 1.00918e-07
ExecutionTime = 0.14 s  ClockTime = 0 s

Courant Number mean: 0.0540446 max: 0.486541
deltaT = 0.0020116
Time = 0.0135014

solidBodyMotionFunctions::rotatingMotion::transformation(): Time = 0.0135014 transformation: ((0 0 0) (0.999101 (0 0 0.0424033)))
AMI: Creating addressing and weights between 96 source faces and 96 target faces
AMI: Patch source sum(weights) min/max/average = 1.00022, 1.00022, 1.00022
AMI: Patch target sum(weights) min/max/average = 1.00022, 1.00022, 1.00022
GAMG:  Solving for pcorr, Initial residual = 1, Final residual = 0.0107821, No Iterations 5
time step continuity errors : sum local = 6.48273e-07, global = 3.49638e-08, cumulative = 1.35882e-07
PIMPLE: iteration 1
smoothSolver:  Solving for Ux, Initial residual = 0.0205963, Final residual = 4.00426e-05, No Iterations 2
smoothSolver:  Solving for Uy, Initial residual = 0.0205942, Final residual = 4.0627e-05, No Iterations 2
GAMG:  Solving for p, Initial residual = 0.0912889, Final residual = 0.00066093, No Iterations 3
time step continuity errors : sum local = 1.03825e-06, global = 8.22101e-09, cumulative = 1.44103e-07
PIMPLE: iteration 2
smoothSolver:  Solving for Ux, Initial residual = 0.000998352, Final residual = 3.5768e-07, No Iterations 3
smoothSolver:  Solving for Uy, Initial residual = 0.00099751, Final residual = 3.51189e-07, No Iterations 3
GAMG:  Solving for p, Initial residual = 0.0302384, Final residual = 6.37444e-07, No Iterations 11
time step continuity errors : sum local = 8.1561e-09, global = 7.06483e-09, cumulative = 1.51168e-07
ExecutionTime = 0.16 s  ClockTime = 0 s

Courant Number mean: 0.055261 max: 0.485202
deltaT = 0.00205949
Time = 0.0155609

solidBodyMotionFunctions::rotatingMotion::transformation(): Time = 0.0155609 transformation: ((0 0 0) (0.998805 (0 0 0.0488666)))
AMI: Creating addressing and weights between 96 source faces and 96 target faces
AMI: Patch source sum(weights) min/max/average = 1.00027, 1.00027, 1.00027
AMI: Patch target sum(weights) min/max/average = 1.00027, 1.00027, 1.00027
GAMG:  Solving for pcorr, Initial residual = 1, Final residual = 0.0193925, No Iterations 6
time step continuity errors : sum local = 1.36318e-06, global = 4.67223e-08, cumulative = 1.9789e-07
PIMPLE: iteration 1
smoothSolver:  Solving for Ux, Initial residual = 0.0201613, Final residual = 4.00849e-05, No Iterations 2
smoothSolver:  Solving for Uy, Initial residual = 0.0201592, Final residual = 4.0625e-05, No Iterations 2
GAMG:  Solving for p, Initial residual = 0.105825, Final residual = 0.000812624, No Iterations 3
time step continuity errors : sum local = 1.2095e-06, global = 1.47708e-08, cumulative = 2.12661e-07
PIMPLE: iteration 2
smoothSolver:  Solving for Ux, Initial residual = 0.00105739, Final residual = 3.4094e-07, No Iterations 3
smoothSolver:  Solving for Uy, Initial residual = 0.00105494, Final residual = 3.3708e-07, No Iterations 3
GAMG:  Solving for p, Initial residual = 0.0329664, Final residual = 9.83279e-07, No Iterations 12
time step continuity errors : sum local = 1.09593e-08, global = 9.6963e-09, cumulative = 2.22357e-07
ExecutionTime = 0.18 s  ClockTime = 0 s

Courant Number mean: 0.0566075 max: 0.483868
deltaT = 0.00211098
Time = 0.0176719

solidBodyMotionFunctions::rotatingMotion::transformation(): Time = 0.0176719 transformation: ((0 0 0) (0.998459 (0 0 0.0554894)))
AMI: Creating addressing and weights between 96 source faces and 96 target faces
AMI: Patch source sum(weights) min/max/average = 1.00023, 1.00023, 1.00023
AMI: Patch target sum(weights) min/max/average = 1.00023, 1.00023, 1.00023
GAMG:  Solving for pcorr, Initial residual = 1, Final residual = 0.0101337, No Iterations 5
time step continuity errors : sum local = 7.42115e-07, global = 5.59541e-08, cumulative = 2.78311e-07
PIMPLE: iteration 1
smoothSolver:  Solving for Ux, Initial residual = 0.0197933, Final residual = 4.16738e-05, No Iterations 2
smoothSolver:  Solving for Uy, Initial residual = 0.0197909, Final residual = 4.17687e-05, No Iterations 2
GAMG:  Solving for p, Initial residual = 0.0765618, Final residual = 0.000480848, No Iterations 4
time step continuity errors : sum local = 6.81728e-07, global = 1.32718e-08, cumulative = 2.91583e-07
PIMPLE: iteration 2
smoothSolver:  Solving for Ux, Initial residual = 0.000984241, Final residual = 3.12766e-07, No Iterations 3
smoothSolver:  Solving for Uy, Initial residual = 0.000984073, Final residual = 3.08208e-07, No Iterations 3
GAMG:  Solving for p, Initial residual = 0.0295442, Final residual = 6.23612e-07, No Iterations 12
time step continuity errors : sum local = 9.92101e-09, global = 9.12406e-09, cumulative = 3.00707e-07
ExecutionTime = 0.2 s  ClockTime = 0 s

Courant Number mean: 0.058044 max: 0.483327
deltaT = 0.00216653
Time = 0.0198384

solidBodyMotionFunctions::rotatingMotion::transformation(): Time = 0.0198384 transformation: ((0 0 0) (0.998058 (0 0 0.062284)))
AMI: Creating addressing and weights between 96 source faces and 96 target faces
AMI: Patch source sum(weights) min/max/average = 1.00009, 1.00009, 1.00009
AMI: Patch target sum(weights) min/max/average = 1.00009, 1.00009, 1.00009
GAMG:  Solving for pcorr, Initial residual = 1, Final residual = 0.018386, No Iterations 6
time step continuity errors : sum local = 1.55446e-06, global = 6.17407e-08, cumulative = 3.62448e-07
PIMPLE: iteration 1
smoothSolver:  Solving for Ux, Initial residual = 0.0196469, Final residual = 4.37727e-05, No Iterations 2
smoothSolver:  Solving for Uy, Initial residual = 0.0196475, Final residual = 4.34552e-05, No Iterations 2
GAMG:  Solving for p, Initial residual = 0.0631771, Final residual = 0.000491599, No Iterations 3
time step continuity errors : sum local = 6.92067e-07, global = 4.26873e-09, cumulative = 3.66716e-07
PIMPLE: iteration 2
smoothSolver:  Solving for Ux, Initial residual = 0.000929235, Final residual = 3.32386e-07, No Iterations 3
smoothSolver:  Solving for Uy, Initial residual = 0.000929033, Final residual = 3.28193e-07, No Iterations 3
GAMG:  Solving for p, Initial residual = 0.0312569, Final residual = 7.09473e-07, No Iterations 12
time step continuity errors : sum local = 5.08944e-09, global = 4.07926e-09, cumulative = 3.70796e-07
ExecutionTime = 0.22 s  ClockTime = 0 s

Courant Number mean: 0.0596217 max: 0.482794
deltaT = 0.00222671
Time = 0.0220651

solidBodyMotionFunctions::rotatingMotion::transformation(): Time = 0.0220651 transformation: ((0 0 0) (0.997598 (0 0 0.0692642)))
AMI: Creating addressing and weights between 96 source faces and 96 target faces
AMI: Patch source sum(weights) min/max/average = 1.00011, 1.00011, 1.00011
AMI: Patch target sum(weights) min/max/average = 1.00011, 1.00011, 1.00011
GAMG:  Solving for pcorr, Initial residual = 1, Final residual = 0.0166191, No Iterations 6
time step continuity errors : sum local = 1.54251e-06, global = 6.33655e-08, cumulative = 4.34161e-07
PIMPLE: iteration 1
smoothSolver:  Solving for Ux, Initial residual = 0.0198559, Final residual = 4.53493e-05, No Iterations 2
smoothSolver:  Solving for Uy, Initial residual = 0.0198568, Final residual = 4.48482e-05, No Iterations 2
GAMG:  Solving for p, Initial residual = 0.0637858, Final residual = 0.000331523, No Iterations 3
time step continuity errors : sum local = 4.68167e-07, global = 7.99298e-09, cumulative = 4.42154e-07
PIMPLE: iteration 2
smoothSolver:  Solving for Ux, Initial residual = 0.000910334, Final residual = 3.53479e-07, No Iterations 3
smoothSolver:  Solving for Uy, Initial residual = 0.000909842, Final residual = 3.50143e-07, No Iterations 3
GAMG:  Solving for p, Initial residual = 0.0308189, Final residual = 9.81301e-07, No Iterations 13
time step continuity errors : sum local = 8.7235e-09, global = 7.47938e-09, cumulative = 4.49633e-07
ExecutionTime = 0.23 s  ClockTime = 0 s

Courant Number mean: 0.061356 max: 0.482166
deltaT = 0.0022922
Time = 0.0243573

solidBodyMotionFunctions::rotatingMotion::transformation(): Time = 0.0243573 transformation: ((0 0 0) (0.997074 (0 0 0.0764463)))
AMI: Creating addressing and weights between 96 source faces and 96 target faces
AMI: Patch source sum(weights) min/max/average = 1.00024, 1.00024, 1.00024
AMI: Patch target sum(weights) min/max/average = 1.00024, 1.00024, 1.00024
GAMG:  Solving for pcorr, Initial residual = 1, Final residual = 0.0103388, No Iterations 5
time step continuity errors : sum local = 1.02194e-06, global = 7.41585e-08, cumulative = 5.23792e-07
PIMPLE: iteration 1
smoothSolver:  Solving for Ux, Initial residual = 0.0196598, Final residual = 4.67785e-05, No Iterations 2
smoothSolver:  Solving for Uy, Initial residual = 0.0196602, Final residual = 4.62197e-05, No Iterations 2
GAMG:  Solving for p, Initial residual = 0.0653973, Final residual = 0.000488094, No Iterations 3
time step continuity errors : sum local = 7.22357e-07, global = 2.3437e-08, cumulative = 5.47229e-07
PIMPLE: iteration 2
smoothSolver:  Solving for Ux, Initial residual = 0.000873472, Final residual = 3.91539e-07, No Iterations 3
smoothSolver:  Solving for Uy, Initial residual = 0.000873558, Final residual = 3.88713e-07, No Iterations 3
GAMG:  Solving for p, Initial residual = 0.0318262, Final residual = 9.04751e-07, No Iterations 10
time step continuity errors : sum local = 1.87875e-08, global = 1.7506e-08, cumulative = 5.64735e-07
ExecutionTime = 0.25 s  ClockTime = 0 s

Courant Number mean: 0.0632673 max: 0.481337
deltaT = 0.00236383
Time = 0.0267211

solidBodyMotionFunctions::rotatingMotion::transformation(): Time = 0.0267211 transformation: ((0 0 0) (0.996479 (0 0 0.0838486)))
AMI: Creating addressing and weights between 96 source faces and 96 target faces
AMI: Patch source sum(weights) min/max/average = 1.00026, 1.00026, 1.00026
AMI: Patch target sum(weights) min/max/average = 1.00026, 1.00026, 1.00026
GAMG:  Solving for pcorr, Initial residual = 1, Final residual = 0.0172684, No Iterations 6
time step continuity errors : sum local = 1.94608e-06, global = 9.05687e-08, cumulative = 6.55304e-07
PIMPLE: iteration 1
smoothSolver:  Solving for Ux, Initial residual = 0.0196267, Final residual = 4.97244e-05, No Iterations 2
smoothSolver:  Solving for Uy, Initial residual = 0.0196253, Final residual = 4.92162e-05, No Iterations 2
GAMG:  Solving for p, Initial residual = 0.0706472, Final residual = 0.000559541, No Iterations 3
time step continuity errors : sum local = 8.61481e-07, global = 2.00703e-08, cumulative = 6.75374e-07
PIMPLE: iteration 2
smoothSolver:  Solving for Ux, Initial residual = 0.000888488, Final residual = 4.32264e-07, No Iterations 3
smoothSolver:  Solving for Uy, Initial residual = 0.000888493, Final residual = 4.29835e-07, No Iterations 3
GAMG:  Solving for p, Initial residual = 0.0335958, Final residual = 7.07832e-07, No Iterations 13
time step continuity errors : sum local = 7.58014e-09, global = 6.62229e-09, cumulative = 6.81996e-07
ExecutionTime = 0.27 s  ClockTime = 0 s

Courant Number mean: 0.0653888 max: 0.481334
deltaT = 0.00244263
Time = 0.0291638

solidBodyMotionFunctions::rotatingMotion::transformation(): Time = 0.0291638 transformation: ((0 0 0) (0.995806 (0 0 0.0914928)))
AMI: Creating addressing and weights between 96 source faces and 96 target faces
AMI: Patch source sum(weights) min/max/average = 1.00017, 1.00017, 1.00017
AMI: Patch target sum(weights) min/max/average = 1.00017, 1.00017, 1.00017
GAMG:  Solving for pcorr, Initial residual = 1, Final residual = 0.00976329, No Iterations 5
time step continuity errors : sum local = 1.17628e-06, global = 8.25568e-08, cumulative = 7.64553e-07
PIMPLE: iteration 1
smoothSolver:  Solving for Ux, Initial residual = 0.0200091, Final residual = 5.51146e-05, No Iterations 2
smoothSolver:  Solving for Uy, Initial residual = 0.020011, Final residual = 5.46558e-05, No Iterations 2
GAMG:  Solving for p, Initial residual = 0.0686891, Final residual = 0.000326323, No Iterations 4
time step continuity errors : sum local = 5.06748e-07, global = 8.61203e-09, cumulative = 7.73165e-07
PIMPLE: iteration 2
smoothSolver:  Solving for Ux, Initial residual = 0.000914321, Final residual = 4.87897e-07, No Iterations 3
smoothSolver:  Solving for Uy, Initial residual = 0.000914135, Final residual = 4.86124e-07, No Iterations 3
GAMG:  Solving for p, Initial residual = 0.0329338, Final residual = 8.33197e-07, No Iterations 10
time step continuity errors : sum local = 9.38781e-09, global = 8.10562e-09, cumulative = 7.81271e-07
ExecutionTime = 0.29 s  ClockTime = 0 s

Courant Number mean: 0.067822 max: 0.481826
deltaT = 0.00252987
Time = 0.0316936

solidBodyMotionFunctions::rotatingMotion::transformation(): Time = 0.0316936 transformation: ((0 0 0) (0.995047 (0 0 0.0994043)))
AMI: Creating addressing and weights between 96 source faces and 96 target faces
AMI: Patch source sum(weights) min/max/average = 1.00004, 1.00004, 1.00004
AMI: Patch target sum(weights) min/max/average = 1.00004, 1.00004, 1.00004
GAMG:  Solving for pcorr, Initial residual = 1, Final residual = 0.0169351, No Iterations 6
time step continuity errors : sum local = 2.30867e-06, global = 8.42904e-08, cumulative = 8.65561e-07
PIMPLE: iteration 1
smoothSolver:  Solving for Ux, Initial residual = 0.0204076, Final residual = 6.18792e-05, No Iterations 2
smoothSolver:  Solving for Uy, Initial residual = 0.0204079, Final residual = 6.14132e-05, No Iterations 2
GAMG:  Solving for p, Initial residual = 0.0602151, Final residual = 0.00045532, No Iterations 4
time step continuity errors : sum local = 7.39748e-07, global = 2.97789e-09, cumulative = 8.68539e-07
PIMPLE: iteration 2
smoothSolver:  Solving for Ux, Initial residual = 0.000931471, Final residual = 5.02304e-07, No Iterations 3
smoothSolver:  Solving for Uy, Initial residual = 0.000931886, Final residual = 5.0164e-07, No Iterations 3
GAMG:  Solving for p, Initial residual = 0.0320553, Final residual = 6.33443e-07, No Iterations 13
time step continuity errors : sum local = 3.97341e-09, global = 3.01152e-09, cumulative = 8.71551e-07
ExecutionTime = 0.31 s  ClockTime = 0 s

Courant Number mean: 0.0705519 max: 0.483143
deltaT = 0.00252987
Time = 0.0342235

solidBodyMotionFunctions::rotatingMotion::transformation(): Time = 0.0342235 transformation: ((0 0 0) (0.994226 (0 0 0.10731)))
AMI: Creating addressing and weights between 96 source faces and 96 target faces
AMI: Patch source sum(weights) min/max/average = 1.00022, 1.00022, 1.00022
AMI: Patch target sum(weights) min/max/average = 1.00022, 1.00022, 1.00022
GAMG:  Solving for pcorr, Initial residual = 1, Final residual = 0.0177901, No Iterations 6
time step continuity errors : sum local = 2.47599e-06, global = 7.12592e-08, cumulative = 9.4281e-07
PIMPLE: iteration 1
smoothSolver:  Solving for Ux, Initial residual = 0.0199937, Final residual = 6.14473e-05, No Iterations 2
smoothSolver:  Solving for Uy, Initial residual = 0.0199946, Final residual = 6.09646e-05, No Iterations 2
GAMG:  Solving for p, Initial residual = 0.0819059, Final residual = 0.000714882, No Iterations 3
time step continuity errors : sum local = 1.1341e-06, global = 3.51451e-08, cumulative = 9.77955e-07
PIMPLE: iteration 2
smoothSolver:  Solving for Ux, Initial residual = 0.000926295, Final residual = 4.92101e-07, No Iterations 3
smoothSolver:  Solving for Uy, Initial residual = 0.000926936, Final residual = 4.91568e-07, No Iterations 3
GAMG:  Solving for p, Initial residual = 0.0310001, Final residual = 8.0532e-07, No Iterations 13
time step continuity errors : sum local = 3.2976e-08, global = 3.17771e-08, cumulative = 1.00973e-06
ExecutionTime = 0.32 s  ClockTime = 0 s

Courant Number mean: 0.0708314 max: 0.475955
deltaT = 0.00263106
Time = 0.0368546

solidBodyMotionFunctions::rotatingMotion::transformation(): Time = 0.0368546 transformation: ((0 0 0) (0.993305 (0 0 0.115524)))
AMI: Creating addressing and weights between 96 source faces and 96 target faces
AMI: Patch source sum(weights) min/max/average = 1.00027, 1.00027, 1.00027
AMI: Patch target sum(weights) min/max/average = 1.00027, 1.00027, 1.00027
GAMG:  Solving for pcorr, Initial residual = 1, Final residual = 0.0152606, No Iterations 6
time step continuity errors : sum local = 2.3764e-06, global = 9.49567e-08, cumulative = 1.10469e-06
PIMPLE: iteration 1
smoothSolver:  Solving for Ux, Initial residual = 0.019915, Final residual = 6.75325e-05, No Iterations 2
smoothSolver:  Solving for Uy, Initial residual = 0.0199116, Final residual = 6.68192e-05, No Iterations 2
GAMG:  Solving for p, Initial residual = 0.0680227, Final residual = 0.000603581, No Iterations 3
time step continuity errors : sum local = 1.09624e-06, global = 5.26292e-08, cumulative = 1.15732e-06
PIMPLE: iteration 2
smoothSolver:  Solving for Ux, Initial residual = 0.000913182, Final residual = 5.37679e-07, No Iterations 3
smoothSolver:  Solving for Uy, Initial residual = 0.000913067, Final residual = 5.36846e-07, No Iterations 3
GAMG:  Solving for p, Initial residual = 0.0318511, Final residual = 7.40472e-07, No Iterations 12
time step continuity errors : sum local = 3.86712e-08, global = 3.73108e-08, cumulative = 1.19463e-06
ExecutionTime = 0.34 s  ClockTime = 0 s

Courant Number mean: 0.0739892 max: 0.494693
deltaT = 0.00263106
Time = 0.0394856

solidBodyMotionFunctions::rotatingMotion::transformation(): Time = 0.0394856 transformation: ((0 0 0) (0.992316 (0 0 0.12373)))
AMI: Creating addressing and weights between 96 source faces and 96 target faces
AMI: Patch source sum(weights) min/max/average = 1.00018, 1.00018, 1.00018
AMI: Patch target sum(weights) min/max/average = 1.00018, 1.00018, 1.00018
GAMG:  Solving for pcorr, Initial residual = 1, Final residual = 0.00967136, No Iterations 5
time step continuity errors : sum local = 1.4877e-06, global = 8.16563e-08, cumulative = 1.27629e-06
PIMPLE: iteration 1
smoothSolver:  Solving for Ux, Initial residual = 0.0197038, Final residual = 6.63077e-05, No Iterations 2
smoothSolver:  Solving for Uy, Initial residual = 0.0197042, Final residual = 6.56137e-05, No Iterations 2
GAMG:  Solving for p, Initial residual = 0.0689295, Final residual = 0.00060981, No Iterations 3
time step continuity errors : sum local = 1.04022e-06, global = 3.42942e-08, cumulative = 1.31058e-06
PIMPLE: iteration 2
smoothSolver:  Solving for Ux, Initial residual = 0.000897366, Final residual = 5.43775e-07, No Iterations 3
smoothSolver:  Solving for Uy, Initial residual = 0.000899055, Final residual = 5.43762e-07, No Iterations 3
GAMG:  Solving for p, Initial residual = 0.0333532, Final residual = 9.88304e-07, No Iterations 10
time step continuity errors : sum local = 3.05313e-08, global = 2.89046e-08, cumulative = 1.33948e-06
ExecutionTime = 0.36 s  ClockTime = 0 s

Courant Number mean: 0.0743275 max: 0.49302
deltaT = 0.00263106
Time = 0.0421167

solidBodyMotionFunctions::rotatingMotion::transformation(): Time = 0.0421167 transformation: ((0 0 0) (0.991259 (0 0 0.131928)))
AMI: Creating addressing and weights between 96 source faces and 96 target faces
AMI: Patch source sum(weights) min/max/average = 1.00004, 1.00004, 1.00004
AMI: Patch target sum(weights) min/max/average = 1.00004, 1.00004, 1.00004
GAMG:  Solving for pcorr, Initial residual = 1, Final residual = 0.0151167, No Iterations 6
time step continuity errors : sum local = 2.42223e-06, global = 5.07455e-08, cumulative = 1.39023e-06
PIMPLE: iteration 1
smoothSolver:  Solving for Ux, Initial residual = 0.0193919, Final residual = 6.73199e-05, No Iterations 2
smoothSolver:  Solving for Uy, Initial residual = 0.0193935, Final residual = 6.65633e-05, No Iterations 2
GAMG:  Solving for p, Initial residual = 0.0574981, Final residual = 0.000339105, No Iterations 3
time step continuity errors : sum local = 5.55672e-07, global = 8.61258e-09, cumulative = 1.39884e-06
PIMPLE: iteration 2
smoothSolver:  Solving for Ux, Initial residual = 0.000829729, Final residual = 5.20571e-07, No Iterations 3
smoothSolver:  Solving for Uy, Initial residual = 0.000830483, Final residual = 5.20446e-07, No Iterations 3
GAMG:  Solving for p, Initial residual = 0.032071, Final residual = 5.37369e-07, No Iterations 13
time step continuity errors : sum local = 9.37923e-09, global = 8.55357e-09, cumulative = 1.4074e-06
ExecutionTime = 0.38 s  ClockTime = 0 s

Courant Number mean: 0.0746937 max: 0.489391
deltaT = 0.00263106
Time = 0.0447477

solidBodyMotionFunctions::rotatingMotion::transformation(): Time = 0.0447477 transformation: ((0 0 0) (0.990135 (0 0 0.140117)))
AMI: Creating addressing and weights between 96 source faces and 96 target faces
AMI: Patch source sum(weights) min/max/average = 1.00022, 1.00022, 1.00022
AMI: Patch target sum(weights) min/max/average = 1.00022, 1.00022, 1.00022
GAMG:  Solving for pcorr, Initial residual = 1, Final residual = 0.00934506, No Iterations 5
time step continuity errors : sum local = 1.45184e-06, global = 5.45417e-09, cumulative = 1.41285e-06
PIMPLE: iteration 1
smoothSolver:  Solving for Ux, Initial residual = 0.0191374, Final residual = 6.86459e-05, No Iterations 2
smoothSolver:  Solving for Uy, Initial residual = 0.019139, Final residual = 6.79164e-05, No Iterations 2
GAMG:  Solving for p, Initial residual = 0.0785809, Final residual = 0.00035391, No Iterations 4
time step continuity errors : sum local = 6.31928e-07, global = 6.44184e-08, cumulative = 1.47727e-06
PIMPLE: iteration 2
smoothSolver:  Solving for Ux, Initial residual = 0.000851036, Final residual = 5.37563e-07, No Iterations 3
smoothSolver:  Solving for Uy, Initial residual = 0.000849264, Final residual = 5.37493e-07, No Iterations 3
GAMG:  Solving for p, Initial residual = 0.0323747, Final residual = 4.32337e-07, No Iterations 10
time step continuity errors : sum local = 6.02625e-08, global = 5.95209e-08, cumulative = 1.53679e-06
ExecutionTime = 0.39 s  ClockTime = 0 s

Courant Number mean: 0.0750671 max: 0.483753
deltaT = 0.00263106
Time = 0.0473788

solidBodyMotionFunctions::rotatingMotion::transformation(): Time = 0.0473788 transformation: ((0 0 0) (0.988943 (0 0 0.148296)))
AMI: Creating addressing and weights between 96 source faces and 96 target faces
AMI: Patch source sum(weights) min/max/average = 1.00027, 1.00027, 1.00027
AMI: Patch target sum(weights) min/max/average = 1.00027, 1.00027, 1.00027
GAMG:  Solving for pcorr, Initial residual = 1, Final residual = 0.0144702, No Iterations 6
time step continuity errors : sum local = 2.39614e-06, global = 2.81142e-08, cumulative = 1.5649e-06
PIMPLE: iteration 1
smoothSolver:  Solving for Ux, Initial residual = 0.0185533, Final residual = 6.99169e-05, No Iterations 2
smoothSolver:  Solving for Uy, Initial residual = 0.0185498, Final residual = 6.91888e-05, No Iterations 2
GAMG:  Solving for p, Initial residual = 0.064003, Final residual = 0.000422155, No Iterations 3
time step continuity errors : sum local = 7.64561e-07, global = 7.55079e-08, cumulative = 1.64041e-06
PIMPLE: iteration 2
smoothSolver:  Solving for Ux, Initial residual = 0.000801956, Final residual = 4.8781e-07, No Iterations 3
smoothSolver:  Solving for Uy, Initial residual = 0.000801014, Final residual = 4.88028e-07, No Iterations 3
GAMG:  Solving for p, Initial residual = 0.0320415, Final residual = 6.50335e-07, No Iterations 13
time step continuity errors : sum local = 6.18678e-08, global = 6.08976e-08, cumulative = 1.70131e-06
ExecutionTime = 0.41 s  ClockTime = 0 s

Courant Number mean: 0.0754884 max: 0.480633
deltaT = 0.00263106
Time = 0.0500099

solidBodyMotionFunctions::rotatingMotion::transformation(): Time = 0.0500099 transformation: ((0 0 0) (0.987683 (0 0 0.156465)))
AMI: Creating addressing and weights between 96 source faces and 96 target faces
AMI: Patch source sum(weights) min/max/average = 1.00017, 1.00017, 1.00017
AMI: Patch target sum(weights) min/max/average = 1.00017, 1.00017, 1.00017
GAMG:  Solving for pcorr, Initial residual = 1, Final residual = 0.0087437, No Iterations 5
time step continuity errors : sum local = 1.42061e-06, global = -3.38571e-09, cumulative = 1.69792e-06
PIMPLE: iteration 1
smoothSolver:  Solving for Ux, Initial residual = 0.0185957, Final residual = 7.09339e-05, No Iterations 2
smoothSolver:  Solving for Uy, Initial residual = 0.0185956, Final residual = 7.03401e-05, No Iterations 2
GAMG:  Solving for p, Initial residual = 0.0606698, Final residual = 0.000223153, No Iterations 4
time step continuity errors : sum local = 4.02936e-07, global = 4.4728e-08, cumulative = 1.74265e-06
PIMPLE: iteration 2
smoothSolver:  Solving for Ux, Initial residual = 0.000766523, Final residual = 4.789e-07, No Iterations 3
smoothSolver:  Solving for Uy, Initial residual = 0.000766014, Final residual = 4.79177e-07, No Iterations 3
GAMG:  Solving for p, Initial residual = 0.030613, Final residual = 5.0244e-07, No Iterations 10
time step continuity errors : sum local = 3.51929e-08, global = 3.43049e-08, cumulative = 1.77696e-06
ExecutionTime = 0.43 s  ClockTime = 0 s

Courant Number mean: 0.0759062 max: 0.481556
deltaT = 0.00263106
Time = 0.0526409

solidBodyMotionFunctions::rotatingMotion::transformation(): Time = 0.0526409 transformation: ((0 0 0) (0.986356 (0 0 0.164624)))
AMI: Creating addressing and weights between 96 source faces and 96 target faces
AMI: Patch source sum(weights) min/max/average = 1.00005, 1.00005, 1.00005
AMI: Patch target sum(weights) min/max/average = 1.00005, 1.00005, 1.00005
GAMG:  Solving for pcorr, Initial residual = 1, Final residual = 0.0137875, No Iterations 6
time step continuity errors : sum local = 2.27534e-06, global = -6.4813e-08, cumulative = 1.71214e-06
PIMPLE: iteration 1
smoothSolver:  Solving for Ux, Initial residual = 0.0185672, Final residual = 7.13911e-05, No Iterations 2
smoothSolver:  Solving for Uy, Initial residual = 0.0185683, Final residual = 7.09197e-05, No Iterations 2
GAMG:  Solving for p, Initial residual = 0.0695182, Final residual = 0.000681791, No Iterations 3
time step continuity errors : sum local = 1.09078e-06, global = 1.39254e-08, cumulative = 1.72607e-06
PIMPLE: iteration 2
smoothSolver:  Solving for Ux, Initial residual = 0.000755916, Final residual = 4.64682e-07, No Iterations 3
smoothSolver:  Solving for Uy, Initial residual = 0.000754663, Final residual = 4.66013e-07, No Iterations 3
GAMG:  Solving for p, Initial residual = 0.0286505, Final residual = 7.46029e-07, No Iterations 13
time step continuity errors : sum local = 1.44624e-08, global = 1.33673e-08, cumulative = 1.73944e-06
ExecutionTime = 0.45 s  ClockTime = 0 s

Courant Number mean: 0.0763811 max: 0.480083
deltaT = 0.00263106
Time = 0.055272

solidBodyMotionFunctions::rotatingMotion::transformation(): Time = 0.055272 transformation: ((0 0 0) (0.984962 (0 0 0.172771)))
AMI: Creating addressing and weights between 96 source faces and 96 target faces
AMI: Patch source sum(weights) min/max/average = 1.00023, 1.00023, 1.00023
AMI: Patch target sum(weights) min/max/average = 1.00023, 1.00023, 1.00023
GAMG:  Solving for pcorr, Initial residual = 1, Final residual = 0.00857714, No Iterations 5
time step continuity errors : sum local = 1.60746e-06, global = -1.19149e-07, cumulative = 1.62029e-06
PIMPLE: iteration 1
smoothSolver:  Solving for Ux, Initial residual = 0.0183244, Final residual = 7.12951e-05, No Iterations 2
smoothSolver:  Solving for Uy, Initial residual = 0.0183252, Final residual = 7.08816e-05, No Iterations 2
GAMG:  Solving for p, Initial residual = 0.0680464, Final residual = 0.000513973, No Iterations 3
time step continuity errors : sum local = 8.81693e-07, global = 7.85471e-08, cumulative = 1.69883e-06
PIMPLE: iteration 2
smoothSolver:  Solving for Ux, Initial residual = 0.000749809, Final residual = 4.63675e-07, No Iterations 3
smoothSolver:  Solving for Uy, Initial residual = 0.000747391, Final residual = 4.6551e-07, No Iterations 3
GAMG:  Solving for p, Initial residual = 0.0280462, Final residual = 8.51083e-07, No Iterations 10
time step continuity errors : sum local = 7.2775e-08, global = 7.12999e-08, cumulative = 1.77013e-06
ExecutionTime = 0.47 s  ClockTime = 0 s

Courant Number mean: 0.0768157 max: 0.476223
deltaT = 0.00263106
Time = 0.057903

solidBodyMotionFunctions::rotatingMotion::transformation(): Time = 0.057903 transformation: ((0 0 0) (0.9835 (0 0 0.180907)))
AMI: Creating addressing and weights between 96 source faces and 96 target faces
AMI: Patch source sum(weights) min/max/average = 1.00026, 1.00026, 1.00026
AMI: Patch target sum(weights) min/max/average = 1.00026, 1.00026, 1.00026
GAMG:  Solving for pcorr, Initial residual = 1, Final residual = 0.0155927, No Iterations 6
time step continuity errors : sum local = 2.63503e-06, global = -9.50165e-08, cumulative = 1.67512e-06
PIMPLE: iteration 1
smoothSolver:  Solving for Ux, Initial residual = 0.0178419, Final residual = 7.24885e-05, No Iterations 2
smoothSolver:  Solving for Uy, Initial residual = 0.0178367, Final residual = 7.20669e-05, No Iterations 2
GAMG:  Solving for p, Initial residual = 0.0649236, Final residual = 0.000284193, No Iterations 4
time step continuity errors : sum local = 5.37392e-07, global = 9.78604e-08, cumulative = 1.77298e-06
PIMPLE: iteration 2
smoothSolver:  Solving for Ux, Initial residual = 0.000716952, Final residual = 4.60046e-07, No Iterations 3
smoothSolver:  Solving for Uy, Initial residual = 0.000716011, Final residual = 4.60614e-07, No Iterations 3
GAMG:  Solving for p, Initial residual = 0.0285844, Final residual = 8.16666e-07, No Iterations 13
time step continuity errors : sum local = 9.11974e-08, global = 8.99831e-08, cumulative = 1.86296e-06
ExecutionTime = 0.49 s  ClockTime = 0 s

Courant Number mean: 0.077245 max: 0.470121
deltaT = 0.00263106
Time = 0.0605341

solidBodyMotionFunctions::rotatingMotion::transformation(): Time = 0.0605341 transformation: ((0 0 0) (0.981971 (0 0 0.18903)))
AMI: Creating addressing and weights between 96 source faces and 96 target faces
AMI: Patch source sum(weights) min/max/average = 1.00016, 1.00016, 1.00016
AMI: Patch target sum(weights) min/max/average = 1.00016, 1.00016, 1.00016
GAMG:  Solving for pcorr, Initial residual = 1, Final residual = 0.0149714, No Iterations 6
time step continuity errors : sum local = 2.5618e-06, global = -1.11739e-07, cumulative = 1.75122e-06
PIMPLE: iteration 1
smoothSolver:  Solving for Ux, Initial residual = 0.0176736, Final residual = 7.42034e-05, No Iterations 2
smoothSolver:  Solving for Uy, Initial residual = 0.0176727, Final residual = 7.38696e-05, No Iterations 2
GAMG:  Solving for p, Initial residual = 0.0563596, Final residual = 0.000561248, No Iterations 3
time step continuity errors : sum local = 9.39203e-07, global = 6.24181e-08, cumulative = 1.81364e-06
PIMPLE: iteration 2
smoothSolver:  Solving for Ux, Initial residual = 0.000693385, Final residual = 4.48368e-07, No Iterations 3
smoothSolver:  Solving for Uy, Initial residual = 0.000693138, Final residual = 4.4979e-07, No Iterations 3
GAMG:  Solving for p, Initial residual = 0.0280741, Final residual = 8.2599e-07, No Iterations 13
time step continuity errors : sum local = 6.26467e-08, global = 6.14066e-08, cumulative = 1.87505e-06
ExecutionTime = 0.5 s  ClockTime = 0 s

Courant Number mean: 0.0776807 max: 0.470713
deltaT = 0.00263106
Time = 0.0631652

solidBodyMotionFunctions::rotatingMotion::transformation(): Time = 0.0631652 transformation: ((0 0 0) (0.980375 (0 0 0.19714)))
AMI: Creating addressing and weights between 96 source faces and 96 target faces
AMI: Patch source sum(weights) min/max/average = 1.00006, 1.00006, 1.00006
AMI: Patch target sum(weights) min/max/average = 1.00006, 1.00006, 1.00006
GAMG:  Solving for pcorr, Initial residual = 1, Final residual = 0.0130579, No Iterations 6
time step continuity errors : sum local = 2.34986e-06, global = -1.75682e-07, cumulative = 1.69936e-06
PIMPLE: iteration 1
smoothSolver:  Solving for Ux, Initial residual = 0.0177357, Final residual = 7.6068e-05, No Iterations 2
smoothSolver:  Solving for Uy, Initial residual = 0.0177374, Final residual = 7.58408e-05, No Iterations 2
GAMG:  Solving for p, Initial residual = 0.0576258, Final residual = 0.000372278, No Iterations 3
time step continuity errors : sum local = 6.09899e-07, global = 2.62582e-08, cumulative = 1.72562e-06
PIMPLE: iteration 2
smoothSolver:  Solving for Ux, Initial residual = 0.000684905, Final residual = 4.52199e-07, No Iterations 3
smoothSolver:  Solving for Uy, Initial residual = 0.000684103, Final residual = 4.53357e-07, No Iterations 3
GAMG:  Solving for p, Initial residual = 0.0275845, Final residual = 6.76097e-07, No Iterations 14
time step continuity errors : sum local = 2.74261e-08, global = 2.62642e-08, cumulative = 1.75189e-06
ExecutionTime = 0.52 s  ClockTime = 0 s

Courant Number mean: 0.0781479 max: 0.47232
deltaT = 0.00263106
Time = 0.0657962

solidBodyMotionFunctions::rotatingMotion::transformation(): Time = 0.0657962 transformation: ((0 0 0) (0.978712 (0 0 0.205237)))
AMI: Creating addressing and weights between 96 source faces and 96 target faces
AMI: Patch source sum(weights) min/max/average = 1.00023, 1.00023, 1.00023
AMI: Patch target sum(weights) min/max/average = 1.00023, 1.00023, 1.00023
GAMG:  Solving for pcorr, Initial residual = 1, Final residual = 0.00867668, No Iterations 5
time step continuity errors : sum local = 1.76541e-06, global = -2.4252e-07, cumulative = 1.50937e-06
PIMPLE: iteration 1
smoothSolver:  Solving for Ux, Initial residual = 0.0176293, Final residual = 7.74633e-05, No Iterations 2
smoothSolver:  Solving for Uy, Initial residual = 0.0176315, Final residual = 7.72966e-05, No Iterations 2
GAMG:  Solving for p, Initial residual = 0.0669911, Final residual = 0.00062539, No Iterations 3
time step continuity errors : sum local = 1.08256e-06, global = 1.10037e-07, cumulative = 1.6194e-06
PIMPLE: iteration 2
smoothSolver:  Solving for Ux, Initial residual = 0.000687429, Final residual = 4.67782e-07, No Iterations 3
smoothSolver:  Solving for Uy, Initial residual = 0.000684287, Final residual = 4.68136e-07, No Iterations 3
GAMG:  Solving for p, Initial residual = 0.0271141, Final residual = 7.23012e-07, No Iterations 11
time step continuity errors : sum local = 1.054e-07, global = 1.04406e-07, cumulative = 1.72381e-06
ExecutionTime = 0.54 s  ClockTime = 0 s

Courant Number mean: 0.0785682 max: 0.472427
deltaT = 0.00263106
Time = 0.0684273

solidBodyMotionFunctions::rotatingMotion::transformation(): Time = 0.0684273 transformation: ((0 0 0) (0.976983 (0 0 0.213319)))
AMI: Creating addressing and weights between 96 source faces and 96 target faces
AMI: Patch source sum(weights) min/max/average = 1.00026, 1.00026, 1.00026
AMI: Patch target sum(weights) min/max/average = 1.00026, 1.00026, 1.00026
GAMG:  Solving for pcorr, Initial residual = 1, Final residual = 0.014197, No Iterations 6
time step continuity errors : sum local = 2.59593e-06, global = -1.94144e-07, cumulative = 1.52967e-06
PIMPLE: iteration 1
smoothSolver:  Solving for Ux, Initial residual = 0.0171123, Final residual = 7.80471e-05, No Iterations 2
smoothSolver:  Solving for Uy, Initial residual = 0.0171082, Final residual = 7.78585e-05, No Iterations 2
GAMG:  Solving for p, Initial residual = 0.0618935, Final residual = 0.000325967, No Iterations 3
time step continuity errors : sum local = 6.38594e-07, global = 1.21968e-07, cumulative = 1.65163e-06
PIMPLE: iteration 2
smoothSolver:  Solving for Ux, Initial residual = 0.000651703, Final residual = 4.204e-07, No Iterations 3
smoothSolver:  Solving for Uy, Initial residual = 0.000651713, Final residual = 4.21591e-07, No Iterations 3
GAMG:  Solving for p, Initial residual = 0.027913, Final residual = 6.11992e-07, No Iterations 14
time step continuity errors : sum local = 1.08342e-07, global = 1.07286e-07, cumulative = 1.75892e-06
ExecutionTime = 0.56 s  ClockTime = 0 s

Courant Number mean: 0.0789977 max: 0.470435
deltaT = 0.00263106
Time = 0.0710583

solidBodyMotionFunctions::rotatingMotion::transformation(): Time = 0.0710583 transformation: ((0 0 0) (0.975186 (0 0 0.221387)))
AMI: Creating addressing and weights between 96 source faces and 96 target faces
AMI: Patch source sum(weights) min/max/average = 1.00016, 1.00016, 1.00016
AMI: Patch target sum(weights) min/max/average = 1.00016, 1.00016, 1.00016
GAMG:  Solving for pcorr, Initial residual = 1, Final residual = 0.00934142, No Iterations 5
time step continuity errors : sum local = 1.88919e-06, global = -2.19543e-07, cumulative = 1.53938e-06
PIMPLE: iteration 1
smoothSolver:  Solving for Ux, Initial residual = 0.0172651, Final residual = 7.8819e-05, No Iterations 2
smoothSolver:  Solving for Uy, Initial residual = 0.0172652, Final residual = 7.87431e-05, No Iterations 2
GAMG:  Solving for p, Initial residual = 0.0640119, Final residual = 0.000632858, No Iterations 3
time step continuity errors : sum local = 1.08356e-06, global = 6.68896e-08, cumulative = 1.60627e-06
PIMPLE: iteration 2
smoothSolver:  Solving for Ux, Initial residual = 0.00062955, Final residual = 4.03358e-07, No Iterations 3
smoothSolver:  Solving for Uy, Initial residual = 0.000628264, Final residual = 4.04416e-07, No Iterations 3
GAMG:  Solving for p, Initial residual = 0.025672, Final residual = 5.10254e-07, No Iterations 10
time step continuity errors : sum local = 5.71894e-08, global = 5.62718e-08, cumulative = 1.66254e-06
ExecutionTime = 0.58 s  ClockTime = 1 s

Courant Number mean: 0.079434 max: 0.46593
deltaT = 0.00263106
Time = 0.0736894

solidBodyMotionFunctions::rotatingMotion::transformation(): Time = 0.0736894 transformation: ((0 0 0) (0.973323 (0 0 0.22944)))
AMI: Creating addressing and weights between 96 source faces and 96 target faces
AMI: Patch source sum(weights) min/max/average = 1.00007, 1.00007, 1.00007
AMI: Patch target sum(weights) min/max/average = 1.00007, 1.00007, 1.00007
GAMG:  Solving for pcorr, Initial residual = 1, Final residual = 0.0116742, No Iterations 6
time step continuity errors : sum local = 2.31297e-06, global = -2.95232e-07, cumulative = 1.36731e-06
PIMPLE: iteration 1
smoothSolver:  Solving for Ux, Initial residual = 0.0173754, Final residual = 8.03739e-05, No Iterations 2
smoothSolver:  Solving for Uy, Initial residual = 0.0173777, Final residual = 8.03917e-05, No Iterations 2
GAMG:  Solving for p, Initial residual = 0.0546187, Final residual = 0.000286302, No Iterations 3
time step continuity errors : sum local = 4.82563e-07, global = 3.1577e-08, cumulative = 1.39888e-06
PIMPLE: iteration 2
smoothSolver:  Solving for Ux, Initial residual = 0.000627917, Final residual = 4.25773e-07, No Iterations 3
smoothSolver:  Solving for Uy, Initial residual = 0.000627569, Final residual = 4.26796e-07, No Iterations 3
GAMG:  Solving for p, Initial residual = 0.0249895, Final residual = 9.96579e-07, No Iterations 13
time step continuity errors : sum local = 3.22959e-08, global = 3.08486e-08, cumulative = 1.42973e-06
ExecutionTime = 0.6 s  ClockTime = 1 s

Courant Number mean: 0.0799117 max: 0.460626
deltaT = 0.00263106
Time = 0.0763205

solidBodyMotionFunctions::rotatingMotion::transformation(): Time = 0.0763205 transformation: ((0 0 0) (0.971393 (0 0 0.237478)))
AMI: Creating addressing and weights between 96 source faces and 96 target faces
AMI: Patch source sum(weights) min/max/average = 1.00024, 1.00024, 1.00024
AMI: Patch target sum(weights) min/max/average = 1.00024, 1.00024, 1.00024
GAMG:  Solving for pcorr, Initial residual = 1, Final residual = 0.00859891, No Iterations 5
time step continuity errors : sum local = 1.89966e-06, global = -3.3755e-07, cumulative = 1.09218e-06
PIMPLE: iteration 1
smoothSolver:  Solving for Ux, Initial residual = 0.0171077, Final residual = 8.18274e-05, No Iterations 2
smoothSolver:  Solving for Uy, Initial residual = 0.0171092, Final residual = 8.18702e-05, No Iterations 2
GAMG:  Solving for p, Initial residual = 0.071089, Final residual = 0.000682759, No Iterations 3
time step continuity errors : sum local = 1.17169e-06, global = 1.07439e-07, cumulative = 1.19962e-06
PIMPLE: iteration 2
smoothSolver:  Solving for Ux, Initial residual = 0.000636547, Final residual = 4.4402e-07, No Iterations 3
smoothSolver:  Solving for Uy, Initial residual = 0.0006355, Final residual = 4.43768e-07, No Iterations 3
GAMG:  Solving for p, Initial residual = 0.0256672, Final residual = 7.58532e-07, No Iterations 11
time step continuity errors : sum local = 1.01569e-07, global = 1.0048e-07, cumulative = 1.3001e-06
ExecutionTime = 0.61 s  ClockTime = 1 s

Courant Number mean: 0.0803435 max: 0.463229
deltaT = 0.00263106
Time = 0.0789515

solidBodyMotionFunctions::rotatingMotion::transformation(): Time = 0.0789515 transformation: ((0 0 0) (0.969397 (0 0 0.245499)))
AMI: Creating addressing and weights between 96 source faces and 96 target faces
AMI: Patch source sum(weights) min/max/average = 1.00026, 1.00026, 1.00026
AMI: Patch target sum(weights) min/max/average = 1.00026, 1.00026, 1.00026
GAMG:  Solving for pcorr, Initial residual = 1, Final residual = 0.0119753, No Iterations 6
time step continuity errors : sum local = 2.38374e-06, global = -2.78091e-07, cumulative = 1.02201e-06
PIMPLE: iteration 1
smoothSolver:  Solving for Ux, Initial residual = 0.0166951, Final residual = 8.34495e-05, No Iterations 2
smoothSolver:  Solving for Uy, Initial residual = 0.0166916, Final residual = 8.34686e-05, No Iterations 2
GAMG:  Solving for p, Initial residual = 0.0545408, Final residual = 0.000338422, No Iterations 3
time step continuity errors : sum local = 6.60445e-07, global = 1.27407e-07, cumulative = 1.14942e-06
PIMPLE: iteration 2
smoothSolver:  Solving for Ux, Initial residual = 0.000599941, Final residual = 4.17465e-07, No Iterations 3
smoothSolver:  Solving for Uy, Initial residual = 0.000600141, Final residual = 4.18831e-07, No Iterations 3
GAMG:  Solving for p, Initial residual = 0.0250774, Final residual = 8.94653e-07, No Iterations 14
time step continuity errors : sum local = 1.21858e-07, global = 1.20317e-07, cumulative = 1.26973e-06
ExecutionTime = 0.63 s  ClockTime = 1 s

Courant Number mean: 0.0807568 max: 0.464128
deltaT = 0.00263106
Time = 0.0815826

solidBodyMotionFunctions::rotatingMotion::transformation(): Time = 0.0815826 transformation: ((0 0 0) (0.967335 (0 0 0.253503)))
AMI: Creating addressing and weights between 96 source faces and 96 target faces
AMI: Patch source sum(weights) min/max/average = 1.00015, 1.00015, 1.00015
AMI: Patch target sum(weights) min/max/average = 1.00015, 1.00015, 1.00015
GAMG:  Solving for pcorr, Initial residual = 1, Final residual = 0.00868583, No Iterations 5
time step continuity errors : sum local = 1.87423e-06, global = -2.63659e-07, cumulative = 1.00608e-06
PIMPLE: iteration 1
smoothSolver:  Solving for Ux, Initial residual = 0.016631, Final residual = 8.47948e-05, No Iterations 2
smoothSolver:  Solving for Uy, Initial residual = 0.0166305, Final residual = 8.48819e-05, No Iterations 2
GAMG:  Solving for p, Initial residual = 0.0515237, Final residual = 0.000485308, No Iterations 3
time step continuity errors : sum local = 8.38959e-07, global = 7.06755e-08, cumulative = 1.07675e-06
PIMPLE: iteration 2
smoothSolver:  Solving for Ux, Initial residual = 0.000588351, Final residual = 4.0485e-07, No Iterations 3
smoothSolver:  Solving for Uy, Initial residual = 0.000587903, Final residual = 4.06369e-07, No Iterations 3
GAMG:  Solving for p, Initial residual = 0.0249196, Final residual = 8.9708e-07, No Iterations 11
time step continuity errors : sum local = 7.11065e-08, global = 6.98701e-08, cumulative = 1.14662e-06
ExecutionTime = 0.65 s  ClockTime = 1 s

Courant Number mean: 0.0811707 max: 0.463118
deltaT = 0.00263106
Time = 0.0842136

solidBodyMotionFunctions::rotatingMotion::transformation(): Time = 0.0842136 transformation: ((0 0 0) (0.965206 (0 0 0.26149)))
AMI: Creating addressing and weights between 96 source faces and 96 target faces
AMI: Patch source sum(weights) min/max/average = 1.00008, 1.00008, 1.00008
AMI: Patch target sum(weights) min/max/average = 1.00008, 1.00008, 1.00008
GAMG:  Solving for pcorr, Initial residual = 1, Final residual = 0.0135759, No Iterations 6
time step continuity errors : sum local = 2.75254e-06, global = -3.12707e-07, cumulative = 8.33915e-07
PIMPLE: iteration 1
smoothSolver:  Solving for Ux, Initial residual = 0.0167102, Final residual = 8.59079e-05, No Iterations 2
smoothSolver:  Solving for Uy, Initial residual = 0.0167134, Final residual = 8.60957e-05, No Iterations 2
GAMG:  Solving for p, Initial residual = 0.0510854, Final residual = 0.00031347, No Iterations 3
time step continuity errors : sum local = 5.16005e-07, global = 4.12712e-08, cumulative = 8.75186e-07
PIMPLE: iteration 2
smoothSolver:  Solving for Ux, Initial residual = 0.000582796, Final residual = 4.06531e-07, No Iterations 3
smoothSolver:  Solving for Uy, Initial residual = 0.000583171, Final residual = 4.07271e-07, No Iterations 3
GAMG:  Solving for p, Initial residual = 0.0235292, Final residual = 6.76701e-07, No Iterations 12
time step continuity errors : sum local = 4.1986e-08, global = 4.08602e-08, cumulative = 9.16046e-07
ExecutionTime = 0.67 s  ClockTime = 1 s

Courant Number mean: 0.081603 max: 0.460345
deltaT = 0.00263106
Time = 0.0868447

solidBodyMotionFunctions::rotatingMotion::transformation(): Time = 0.0868447 transformation: ((0 0 0) (0.963012 (0 0 0.269459)))
AMI: Creating addressing and weights between 96 source faces and 96 target faces
AMI: Patch source sum(weights) min/max/average = 1.00024, 1.00024, 1.00024
AMI: Patch target sum(weights) min/max/average = 1.00024, 1.00024, 1.00024
GAMG:  Solving for pcorr, Initial residual = 1, Final residual = 0.00925139, No Iterations 5
time step continuity errors : sum local = 2.06983e-06, global = -3.29978e-07, cumulative = 5.86068e-07
PIMPLE: iteration 1
smoothSolver:  Solving for Ux, Initial residual = 0.016528, Final residual = 8.66146e-05, No Iterations 2
smoothSolver:  Solving for Uy, Initial residual = 0.0165291, Final residual = 8.67985e-05, No Iterations 2
GAMG:  Solving for p, Initial residual = 0.0637211, Final residual = 0.000519889, No Iterations 3
time step continuity errors : sum local = 9.35456e-07, global = 1.31076e-07, cumulative = 7.17144e-07
PIMPLE: iteration 2
smoothSolver:  Solving for Ux, Initial residual = 0.000588784, Final residual = 4.16898e-07, No Iterations 3
smoothSolver:  Solving for Uy, Initial residual = 0.000588182, Final residual = 4.16818e-07, No Iterations 3
GAMG:  Solving for p, Initial residual = 0.0239421, Final residual = 6.9882e-07, No Iterations 10
time step continuity errors : sum local = 1.23981e-07, global = 1.22731e-07, cumulative = 8.39876e-07
ExecutionTime = 0.69 s  ClockTime = 1 s

Courant Number mean: 0.0820343 max: 0.456012
deltaT = 0.00263106
Time = 0.0894758

solidBodyMotionFunctions::rotatingMotion::transformation(): Time = 0.0894758 transformation: ((0 0 0) (0.960752 (0 0 0.27741)))
AMI: Creating addressing and weights between 96 source faces and 96 target faces
AMI: Patch source sum(weights) min/max/average = 1.00026, 1.00026, 1.00026
AMI: Patch target sum(weights) min/max/average = 1.00026, 1.00026, 1.00026
GAMG:  Solving for pcorr, Initial residual = 1, Final residual = 0.0150092, No Iterations 6
time step continuity errors : sum local = 2.9667e-06, global = -2.2873e-07, cumulative = 6.11146e-07
PIMPLE: iteration 1
smoothSolver:  Solving for Ux, Initial residual = 0.0160986, Final residual = 8.78032e-05, No Iterations 2
smoothSolver:  Solving for Uy, Initial residual = 0.0160946, Final residual = 8.79609e-05, No Iterations 2
GAMG:  Solving for p, Initial residual = 0.0605274, Final residual = 0.000444467, No Iterations 3
time step continuity errors : sum local = 8.47869e-07, global = 1.30623e-07, cumulative = 7.41769e-07
PIMPLE: iteration 2
smoothSolver:  Solving for Ux, Initial residual = 0.000552614, Final residual = 3.8624e-07, No Iterations 3
smoothSolver:  Solving for Uy, Initial residual = 0.000553058, Final residual = 3.87188e-07, No Iterations 3
GAMG:  Solving for p, Initial residual = 0.0235395, Final residual = 8.54907e-07, No Iterations 12
time step continuity errors : sum local = 1.1478e-07, global = 1.13339e-07, cumulative = 8.55108e-07
ExecutionTime = 0.71 s  ClockTime = 1 s

Courant Number mean: 0.0824704 max: 0.453124
deltaT = 0.00263106
Time = 0.0921068

solidBodyMotionFunctions::rotatingMotion::transformation(): Time = 0.0921068 transformation: ((0 0 0) (0.958426 (0 0 0.285342)))
AMI: Creating addressing and weights between 96 source faces and 96 target faces
AMI: Patch source sum(weights) min/max/average = 1.00014, 1.00014, 1.00014
AMI: Patch target sum(weights) min/max/average = 1.00014, 1.00014, 1.00014
GAMG:  Solving for pcorr, Initial residual = 1, Final residual = 0.00933392, No Iterations 5
time step continuity errors : sum local = 2.00072e-06, global = -2.11987e-07, cumulative = 6.43121e-07
PIMPLE: iteration 1
smoothSolver:  Solving for Ux, Initial residual = 0.0162649, Final residual = 8.94877e-05, No Iterations 2
smoothSolver:  Solving for Uy, Initial residual = 0.0162658, Final residual = 8.97143e-05, No Iterations 2
GAMG:  Solving for p, Initial residual = 0.0549794, Final residual = 0.000479328, No Iterations 3
time step continuity errors : sum local = 8.23485e-07, global = 6.50076e-08, cumulative = 7.08129e-07
PIMPLE: iteration 2
smoothSolver:  Solving for Ux, Initial residual = 0.000545257, Final residual = 3.87527e-07, No Iterations 3
smoothSolver:  Solving for Uy, Initial residual = 0.000545314, Final residual = 3.8854e-07, No Iterations 3
GAMG:  Solving for p, Initial residual = 0.0229484, Final residual = 6.9014e-07, No Iterations 9
time step continuity errors : sum local = 6.43485e-08, global = 6.33542e-08, cumulative = 7.71483e-07
ExecutionTime = 0.72 s  ClockTime = 1 s

Courant Number mean: 0.0829111 max: 0.454806
deltaT = 0.00263106
Time = 0.0947379

solidBodyMotionFunctions::rotatingMotion::transformation(): Time = 0.0947379 transformation: ((0 0 0) (0.956035 (0 0 0.293254)))
AMI: Creating addressing and weights between 96 source faces and 96 target faces
AMI: Patch source sum(weights) min/max/average = 1.00009, 1.00009, 1.00009
AMI: Patch target sum(weights) min/max/average = 1.00009, 1.00009, 1.00009
GAMG:  Solving for pcorr, Initial residual = 1, Final residual = 0.0155613, No Iterations 6
time step continuity errors : sum local = 3.36582e-06, global = -2.26342e-07, cumulative = 5.45141e-07
PIMPLE: iteration 1
smoothSolver:  Solving for Ux, Initial residual = 0.0162916, Final residual = 9.0868e-05, No Iterations 2
smoothSolver:  Solving for Uy, Initial residual = 0.0162937, Final residual = 9.11403e-05, No Iterations 2
GAMG:  Solving for p, Initial residual = 0.05779, Final residual = 0.000288388, No Iterations 3
time step continuity errors : sum local = 4.81581e-07, global = 4.38706e-08, cumulative = 5.89011e-07
PIMPLE: iteration 2
smoothSolver:  Solving for Ux, Initial residual = 0.000550534, Final residual = 4.07168e-07, No Iterations 3
smoothSolver:  Solving for Uy, Initial residual = 0.000550417, Final residual = 4.07295e-07, No Iterations 3
GAMG:  Solving for p, Initial residual = 0.0230262, Final residual = 9.7506e-07, No Iterations 12
time step continuity errors : sum local = 4.50457e-08, global = 4.33872e-08, cumulative = 6.32399e-07
ExecutionTime = 0.74 s  ClockTime = 1 s

Courant Number mean: 0.0833313 max: 0.455071
deltaT = 0.00263106
Time = 0.0973689

solidBodyMotionFunctions::rotatingMotion::transformation(): Time = 0.0973689 transformation: ((0 0 0) (0.953578 (0 0 0.301146)))
AMI: Creating addressing and weights between 96 source faces and 96 target faces
AMI: Patch source sum(weights) min/max/average = 1.00024, 1.00024, 1.00024
AMI: Patch target sum(weights) min/max/average = 1.00024, 1.00024, 1.00024
GAMG:  Solving for pcorr, Initial residual = 1, Final residual = 0.00866416, No Iterations 5
time step continuity errors : sum local = 1.87825e-06, global = -1.96964e-07, cumulative = 4.35435e-07
PIMPLE: iteration 1
smoothSolver:  Solving for Ux, Initial residual = 0.0160561, Final residual = 9.20958e-05, No Iterations 2
smoothSolver:  Solving for Uy, Initial residual = 0.0160564, Final residual = 9.23557e-05, No Iterations 2
GAMG:  Solving for p, Initial residual = 0.066209, Final residual = 0.000513074, No Iterations 3
time step continuity errors : sum local = 9.16823e-07, global = 1.25387e-07, cumulative = 5.60822e-07
PIMPLE: iteration 2
smoothSolver:  Solving for Ux, Initial residual = 0.000552402, Final residual = 4.12759e-07, No Iterations 3
smoothSolver:  Solving for Uy, Initial residual = 0.000551445, Final residual = 4.12943e-07, No Iterations 3
GAMG:  Solving for p, Initial residual = 0.0236233, Final residual = 7.67864e-07, No Iterations 11
time step continuity errors : sum local = 1.1808e-07, global = 1.17013e-07, cumulative = 6.77834e-07
ExecutionTime = 0.76 s  ClockTime = 1 s

Courant Number mean: 0.0837287 max: 0.453871
deltaT = 0.00263106
Time = 0.1

solidBodyMotionFunctions::rotatingMotion::transformation(): Time = 0.1 transformation: ((0 0 0) (0.951056 (0 0 0.309018)))
AMI: Creating addressing and weights between 96 source faces and 96 target faces
AMI: Patch source sum(weights) min/max/average = 1.00026, 1.00026, 1.00026
AMI: Patch target sum(weights) min/max/average = 1.00026, 1.00026, 1.00026
GAMG:  Solving for pcorr, Initial residual = 1, Final residual = 0.012003, No Iterations 6
time step continuity errors : sum local = 2.381e-06, global = -6.21632e-08, cumulative = 6.15671e-07
PIMPLE: iteration 1
smoothSolver:  Solving for Ux, Initial residual = 0.0157611, Final residual = 9.28884e-05, No Iterations 2
smoothSolver:  Solving for Uy, Initial residual = 0.0157585, Final residual = 9.31174e-05, No Iterations 2
GAMG:  Solving for p, Initial residual = 0.0558517, Final residual = 0.000343136, No Iterations 3
time step continuity errors : sum local = 6.52835e-07, global = 1.28703e-07, cumulative = 7.44374e-07
PIMPLE: iteration 2
smoothSolver:  Solving for Ux, Initial residual = 0.000525005, Final residual = 3.88539e-07, No Iterations 3
smoothSolver:  Solving for Uy, Initial residual = 0.000525348, Final residual = 3.89613e-07, No Iterations 3
GAMG:  Solving for p, Initial residual = 0.0231861, Final residual = 7.42177e-07, No Iterations 13
time step continuity errors : sum local = 1.17279e-07, global = 1.16224e-07, cumulative = 8.60598e-07
ExecutionTime = 0.78 s  ClockTime = 1 s

Courant Number mean: 0.0841146 max: 0.450899
deltaT = 0.00285714
Time = 0.102857

solidBodyMotionFunctions::rotatingMotion::transformation(): Time = 0.102857 transformation: ((0 0 0) (0.948244 (0 0 0.317542)))
AMI: Creating addressing and weights between 96 source faces and 96 target faces
AMI: Patch source sum(weights) min/max/average = 1.00012, 1.00012, 1.00012
AMI: Patch target sum(weights) min/max/average = 1.00012, 1.00012, 1.00012
GAMG:  Solving for pcorr, Initial residual = 1, Final residual = 0.0087419, No Iterations 5
time step continuity errors : sum local = 2.03113e-06, global = -1.88832e-09, cumulative = 8.5871e-07
PIMPLE: iteration 1
smoothSolver:  Solving for Ux, Initial residual = 0.0170912, Final residual = 0.000117338, No Iterations 2
smoothSolver:  Solving for Uy, Initial residual = 0.0170914, Final residual = 0.000117689, No Iterations 2
GAMG:  Solving for p, Initial residual = 0.0558255, Final residual = 0.000493491, No Iterations 3
time step continuity errors : sum local = 9.55576e-07, global = 7.05211e-08, cumulative = 9.29231e-07
PIMPLE: iteration 2
smoothSolver:  Solving for Ux, Initial residual = 0.000605906, Final residual = 5.67771e-07, No Iterations 3
smoothSolver:  Solving for Uy, Initial residual = 0.0006062, Final residual = 5.68178e-07, No Iterations 3
GAMG:  Solving for p, Initial residual = 0.024381, Final residual = 7.12103e-07, No Iterations 11
time step continuity errors : sum local = 6.6911e-08, global = 6.58101e-08, cumulative = 9.95041e-07
ExecutionTime = 0.8 s  ClockTime = 1 s

Courant Number mean: 0.0917922 max: 0.486921
deltaT = 0.00285714
Time = 0.105714

solidBodyMotionFunctions::rotatingMotion::transformation(): Time = 0.105714 transformation: ((0 0 0) (0.945356 (0 0 0.32604)))
AMI: Creating addressing and weights between 96 source faces and 96 target faces
AMI: Patch source sum(weights) min/max/average = 1.00014, 1.00014, 1.00014
AMI: Patch target sum(weights) min/max/average = 1.00014, 1.00014, 1.00014
GAMG:  Solving for pcorr, Initial residual = 1, Final residual = 0.00911646, No Iterations 6
time step continuity errors : sum local = 2.14938e-06, global = 4.25071e-08, cumulative = 1.03755e-06
PIMPLE: iteration 1
smoothSolver:  Solving for Ux, Initial residual = 0.0170459, Final residual = 0.000118438, No Iterations 2
smoothSolver:  Solving for Uy, Initial residual = 0.0170486, Final residual = 0.000118828, No Iterations 2
GAMG:  Solving for p, Initial residual = 0.0605218, Final residual = 0.000332092, No Iterations 3
time step continuity errors : sum local = 6.55988e-07, global = 8.00319e-08, cumulative = 1.11758e-06
PIMPLE: iteration 2
smoothSolver:  Solving for Ux, Initial residual = 0.000603438, Final residual = 5.74637e-07, No Iterations 3
smoothSolver:  Solving for Uy, Initial residual = 0.000603525, Final residual = 5.74374e-07, No Iterations 3
GAMG:  Solving for p, Initial residual = 0.0235732, Final residual = 9.00229e-07, No Iterations 11
time step continuity errors : sum local = 7.7608e-08, global = 7.60866e-08, cumulative = 1.19367e-06
ExecutionTime = 0.82 s  ClockTime = 1 s

Courant Number mean: 0.0922738 max: 0.484736
deltaT = 0.00294643
Time = 0.108661

solidBodyMotionFunctions::rotatingMotion::transformation(): Time = 0.108661 transformation: ((0 0 0) (0.942297 (0 0 0.334777)))
AMI: Creating addressing and weights between 96 source faces and 96 target faces
AMI: Patch source sum(weights) min/max/average = 1.00026, 1.00026, 1.00026
AMI: Patch target sum(weights) min/max/average = 1.00026, 1.00026, 1.00026
GAMG:  Solving for pcorr, Initial residual = 1, Final residual = 0.00933195, No Iterations 5
time step continuity errors : sum local = 2.49805e-06, global = 1.83436e-07, cumulative = 1.3771e-06
PIMPLE: iteration 1
smoothSolver:  Solving for Ux, Initial residual = 0.017308, Final residual = 0.000130272, No Iterations 2
smoothSolver:  Solving for Uy, Initial residual = 0.0173063, Final residual = 0.000130655, No Iterations 2
GAMG:  Solving for p, Initial residual = 0.0717102, Final residual = 0.000383079, No Iterations 3
time step continuity errors : sum local = 8.94976e-07, global = 1.67294e-07, cumulative = 1.5444e-06
PIMPLE: iteration 2
smoothSolver:  Solving for Ux, Initial residual = 0.000625249, Final residual = 6.39532e-07, No Iterations 3
smoothSolver:  Solving for Uy, Initial residual = 0.000624846, Final residual = 6.39032e-07, No Iterations 3
GAMG:  Solving for p, Initial residual = 0.0242234, Final residual = 6.36142e-07, No Iterations 9
time step continuity errors : sum local = 1.50545e-07, global = 1.4944e-07, cumulative = 1.69384e-06
ExecutionTime = 0.84 s  ClockTime = 1 s

Courant Number mean: 0.0956538 max: 0.49945
deltaT = 0.00294643
Time = 0.111607

solidBodyMotionFunctions::rotatingMotion::transformation(): Time = 0.111607 transformation: ((0 0 0) (0.939158 (0 0 0.343485)))
AMI: Creating addressing and weights between 96 source faces and 96 target faces
AMI: Patch source sum(weights) min/max/average = 1.00022, 1.00022, 1.00022
AMI: Patch target sum(weights) min/max/average = 1.00022, 1.00022, 1.00022
GAMG:  Solving for pcorr, Initial residual = 1, Final residual = 0.0147599, No Iterations 6
time step continuity errors : sum local = 4.28276e-06, global = 4.00495e-07, cumulative = 2.09433e-06
PIMPLE: iteration 1
smoothSolver:  Solving for Ux, Initial residual = 0.0170973, Final residual = 0.000131193, No Iterations 2
smoothSolver:  Solving for Uy, Initial residual = 0.0170942, Final residual = 0.000131574, No Iterations 2
GAMG:  Solving for p, Initial residual = 0.069043, Final residual = 0.000415886, No Iterations 3
time step continuity errors : sum local = 8.97611e-07, global = 1.30086e-07, cumulative = 2.22442e-06
PIMPLE: iteration 2
smoothSolver:  Solving for Ux, Initial residual = 0.000616241, Final residual = 6.36577e-07, No Iterations 3
smoothSolver:  Solving for Uy, Initial residual = 0.000617472, Final residual = 6.37931e-07, No Iterations 3
GAMG:  Solving for p, Initial residual = 0.0247817, Final residual = 8.47468e-07, No Iterations 13
time step continuity errors : sum local = 1.3444e-07, global = 1.32972e-07, cumulative = 2.35739e-06
ExecutionTime = 0.85 s  ClockTime = 1 s

Courant Number mean: 0.0961319 max: 0.498541
deltaT = 0.00294643
Time = 0.114554

solidBodyMotionFunctions::rotatingMotion::transformation(): Time = 0.114554 transformation: ((0 0 0) (0.935939 (0 0 0.352163)))
AMI: Creating addressing and weights between 96 source faces and 96 target faces
AMI: Patch source sum(weights) min/max/average = 1, 1, 1
AMI: Patch target sum(weights) min/max/average = 1, 1, 1
GAMG:  Solving for pcorr, Initial residual = 1, Final residual = 0.00930562, No Iterations 5
time step continuity errors : sum local = 2.85291e-06, global = 5.4388e-07, cumulative = 2.90127e-06
PIMPLE: iteration 1
smoothSolver:  Solving for Ux, Initial residual = 0.0170348, Final residual = 0.000132613, No Iterations 2
smoothSolver:  Solving for Uy, Initial residual = 0.0170338, Final residual = 0.000133012, No Iterations 2
GAMG:  Solving for p, Initial residual = 0.0572691, Final residual = 0.000194459, No Iterations 4
time step continuity errors : sum local = 3.68197e-07, global = 1.99092e-09, cumulative = 2.90326e-06
PIMPLE: iteration 2
smoothSolver:  Solving for Ux, Initial residual = 0.000613361, Final residual = 6.33077e-07, No Iterations 3
smoothSolver:  Solving for Uy, Initial residual = 0.000614431, Final residual = 6.34005e-07, No Iterations 3
GAMG:  Solving for p, Initial residual = 0.0251141, Final residual = 5.10763e-07, No Iterations 10
time step continuity errors : sum local = 2.92998e-09, global = 1.96549e-09, cumulative = 2.90523e-06
ExecutionTime = 0.87 s  ClockTime = 1 s

Courant Number mean: 0.0965832 max: 0.495854
deltaT = 0.00294643
Time = 0.1175

solidBodyMotionFunctions::rotatingMotion::transformation(): Time = 0.1175 transformation: ((0 0 0) (0.932639 (0 0 0.360812)))
AMI: Creating addressing and weights between 96 source faces and 96 target faces
AMI: Patch source sum(weights) min/max/average = 1.00022, 1.00022, 1.00022
AMI: Patch target sum(weights) min/max/average = 1.00022, 1.00022, 1.00022
GAMG:  Solving for pcorr, Initial residual = 1, Final residual = 0.015437, No Iterations 6
time step continuity errors : sum local = 4.70685e-06, global = 5.9211e-07, cumulative = 3.49733e-06
PIMPLE: iteration 1
smoothSolver:  Solving for Ux, Initial residual = 0.0170828, Final residual = 0.000133823, No Iterations 2
smoothSolver:  Solving for Uy, Initial residual = 0.0170881, Final residual = 0.000134273, No Iterations 2
GAMG:  Solving for p, Initial residual = 0.0712017, Final residual = 0.000418596, No Iterations 3
time step continuity errors : sum local = 9.3614e-07, global = 1.51657e-07, cumulative = 3.64899e-06
PIMPLE: iteration 2
smoothSolver:  Solving for Ux, Initial residual = 0.000627423, Final residual = 6.8136e-07, No Iterations 3
smoothSolver:  Solving for Uy, Initial residual = 0.000627677, Final residual = 6.79631e-07, No Iterations 3
GAMG:  Solving for p, Initial residual = 0.0246959, Final residual = 7.48867e-07, No Iterations 12
time step continuity errors : sum local = 1.44968e-07, global = 1.43472e-07, cumulative = 3.79246e-06
ExecutionTime = 0.89 s  ClockTime = 1 s

Courant Number mean: 0.0969782 max: 0.495878
deltaT = 0.00294643
Time = 0.120446

solidBodyMotionFunctions::rotatingMotion::transformation(): Time = 0.120446 transformation: ((0 0 0) (0.929259 (0 0 0.369429)))
AMI: Creating addressing and weights between 96 source faces and 96 target faces
AMI: Patch source sum(weights) min/max/average = 1.00026, 1.00026, 1.00026
AMI: Patch target sum(weights) min/max/average = 1.00026, 1.00026, 1.00026
GAMG:  Solving for pcorr, Initial residual = 1, Final residual = 0.00865854, No Iterations 5
time step continuity errors : sum local = 3.08491e-06, global = 9.31082e-07, cumulative = 4.72355e-06
PIMPLE: iteration 1
smoothSolver:  Solving for Ux, Initial residual = 0.0164107, Final residual = 0.000134265, No Iterations 2
smoothSolver:  Solving for Uy, Initial residual = 0.0164032, Final residual = 0.00013462, No Iterations 2
GAMG:  Solving for p, Initial residual = 0.063883, Final residual = 0.000192754, No Iterations 4
time step continuity errors : sum local = 5.37677e-07, global = 1.75867e-07, cumulative = 4.89941e-06
PIMPLE: iteration 2
smoothSolver:  Solving for Ux, Initial residual = 0.000587228, Final residual = 6.31566e-07, No Iterations 3
smoothSolver:  Solving for Uy, Initial residual = 0.00058802, Final residual = 6.31227e-07, No Iterations 3
GAMG:  Solving for p, Initial residual = 0.0247055, Final residual = 5.77261e-07, No Iterations 10
time step continuity errors : sum local = 1.51737e-07, global = 1.50541e-07, cumulative = 5.04995e-06
ExecutionTime = 0.91 s  ClockTime = 1 s

Courant Number mean: 0.097348 max: 0.493571
deltaT = 0.00294643
Time = 0.123393

solidBodyMotionFunctions::rotatingMotion::transformation(): Time = 0.123393 transformation: ((0 0 0) (0.9258 (0 0 0.378015)))
AMI: Creating addressing and weights between 96 source faces and 96 target faces
AMI: Patch source sum(weights) min/max/average = 1.00014, 1.00014, 1.00014
AMI: Patch target sum(weights) min/max/average = 1.00014, 1.00014, 1.00014
GAMG:  Solving for pcorr, Initial residual = 1, Final residual = 0.015185, No Iterations 6
time step continuity errors : sum local = 5.21553e-06, global = 1.14851e-06, cumulative = 6.19846e-06
PIMPLE: iteration 1
smoothSolver:  Solving for Ux, Initial residual = 0.0166051, Final residual = 0.000136111, No Iterations 2
smoothSolver:  Solving for Uy, Initial residual = 0.0166035, Final residual = 0.000136487, No Iterations 2
GAMG:  Solving for p, Initial residual = 0.0607331, Final residual = 0.000345579, No Iterations 3
time step continuity errors : sum local = 7.34507e-07, global = 8.0267e-08, cumulative = 6.27873e-06
PIMPLE: iteration 2
smoothSolver:  Solving for Ux, Initial residual = 0.00057766, Final residual = 6.24755e-07, No Iterations 3
smoothSolver:  Solving for Uy, Initial residual = 0.000578567, Final residual = 6.25263e-07, No Iterations 3
GAMG:  Solving for p, Initial residual = 0.024094, Final residual = 8.56688e-07, No Iterations 12
time step continuity errors : sum local = 6.32371e-08, global = 6.15243e-08, cumulative = 6.34025e-06
ExecutionTime = 0.93 s  ClockTime = 1 s

Courant Number mean: 0.0977335 max: 0.488899
deltaT = 0.00294643
Time = 0.126339

solidBodyMotionFunctions::rotatingMotion::transformation(): Time = 0.126339 transformation: ((0 0 0) (0.922261 (0 0 0.386568)))
AMI: Creating addressing and weights between 96 source faces and 96 target faces
AMI: Patch source sum(weights) min/max/average = 1.00012, 1.00012, 1.00012
AMI: Patch target sum(weights) min/max/average = 1.00012, 1.00012, 1.00012
GAMG:  Solving for pcorr, Initial residual = 1, Final residual = 0.00926193, No Iterations 5
[...]

solidBodyMotionFunctions::rotatingMotion::transformation(): Time = 0.947826 transformation: ((0 0 0) (-0.986598 (0 0 0.163169)))
AMI: Creating addressing and weights between 96 source faces and 96 target faces
AMI: Patch source sum(weights) min/max/average = 1.00001, 1.00001, 1.00001
AMI: Patch target sum(weights) min/max/average = 1.00001, 1.00001, 1.00001
GAMG:  Solving for pcorr, Initial residual = 1, Final residual = 0.0183486, No Iterations 6
time step continuity errors : sum local = 5.86945e-05, global = 4.84386e-05, cumulative = 0.00521636
PIMPLE: iteration 1
smoothSolver:  Solving for Ux, Initial residual = 0.0153407, Final residual = 0.000112175, No Iterations 2
smoothSolver:  Solving for Uy, Initial residual = 0.0153752, Final residual = 0.000111599, No Iterations 2
GAMG:  Solving for p, Initial residual = 0.0708197, Final residual = 0.000370362, No Iterations 3
time step continuity errors : sum local = 6.40107e-07, global = -4.82904e-10, cumulative = 0.00521636
PIMPLE: iteration 2
smoothSolver:  Solving for Ux, Initial residual = 0.00052177, Final residual = 3.46768e-07, No Iterations 3
smoothSolver:  Solving for Uy, Initial residual = 0.000541356, Final residual = 3.59194e-07, No Iterations 3
GAMG:  Solving for p, Initial residual = 0.0274113, Final residual = 7.8727e-07, No Iterations 14
time step continuity errors : sum local = 2.13496e-09, global = -7.1207e-10, cumulative = 0.00521635
ExecutionTime = 5.28 s  ClockTime = 5 s

Courant Number mean: 0.0974263 max: 0.49838
deltaT = 0.00434783
Time = 0.952174

solidBodyMotionFunctions::rotatingMotion::transformation(): Time = 0.952174 transformation: ((0 0 0) (-0.988735 (0 0 0.149678)))
AMI: Creating addressing and weights between 96 source faces and 96 target faces
AMI: Patch source sum(weights) min/max/average = 1.00026, 1.00026, 1.00026
AMI: Patch target sum(weights) min/max/average = 1.00026, 1.00026, 1.00026
GAMG:  Solving for pcorr, Initial residual = 1, Final residual = 0.0184536, No Iterations 5
time step continuity errors : sum local = 6.03859e-05, global = 4.82373e-05, cumulative = 0.00526459
PIMPLE: iteration 1
smoothSolver:  Solving for Ux, Initial residual = 0.0154791, Final residual = 0.000112334, No Iterations 2
smoothSolver:  Solving for Uy, Initial residual = 0.0155075, Final residual = 0.000111651, No Iterations 2
GAMG:  Solving for p, Initial residual = 0.0823952, Final residual = 0.000598425, No Iterations 3
time step continuity errors : sum local = 1.04621e-06, global = -1.92894e-08, cumulative = 0.00526457
PIMPLE: iteration 2
smoothSolver:  Solving for Ux, Initial residual = 0.000509868, Final residual = 3.44171e-07, No Iterations 3
smoothSolver:  Solving for Uy, Initial residual = 0.000545679, Final residual = 3.70239e-07, No Iterations 3
GAMG:  Solving for p, Initial residual = 0.0270772, Final residual = 8.43154e-07, No Iterations 14
time step continuity errors : sum local = 2.59837e-08, global = -2.44878e-08, cumulative = 0.00526455
ExecutionTime = 5.3 s  ClockTime = 5 s

Courant Number mean: 0.0972124 max: 0.498691
deltaT = 0.00434783
Time = 0.956522

solidBodyMotionFunctions::rotatingMotion::transformation(): Time = 0.956522 transformation: ((0 0 0) (-0.990687 (0 0 0.13616)))
AMI: Creating addressing and weights between 96 source faces and 96 target faces
AMI: Patch source sum(weights) min/max/average = 1.00015, 1.00015, 1.00015
AMI: Patch target sum(weights) min/max/average = 1.00015, 1.00015, 1.00015
GAMG:  Solving for pcorr, Initial residual = 1, Final residual = 0.0140664, No Iterations 7
time step continuity errors : sum local = 5.69083e-05, global = 4.79858e-05, cumulative = 0.00531253
PIMPLE: iteration 1
smoothSolver:  Solving for Ux, Initial residual = 0.0153101, Final residual = 0.00011222, No Iterations 2
smoothSolver:  Solving for Uy, Initial residual = 0.0153464, Final residual = 0.000111575, No Iterations 2
GAMG:  Solving for p, Initial residual = 0.0724621, Final residual = 0.000485026, No Iterations 3
time step continuity errors : sum local = 8.62066e-07, global = -2.85538e-08, cumulative = 0.00531251
PIMPLE: iteration 2
smoothSolver:  Solving for Ux, Initial residual = 0.0005338, Final residual = 3.46889e-07, No Iterations 3
smoothSolver:  Solving for Uy, Initial residual = 0.00055832, Final residual = 3.56413e-07, No Iterations 3
GAMG:  Solving for p, Initial residual = 0.0276569, Final residual = 8.07225e-07, No Iterations 16
time step continuity errors : sum local = 3.5755e-08, global = -3.42249e-08, cumulative = 0.00531247
ExecutionTime = 5.32 s  ClockTime = 5 s

Courant Number mean: 0.0970011 max: 0.496661
deltaT = 0.00434783
Time = 0.96087

solidBodyMotionFunctions::rotatingMotion::transformation(): Time = 0.96087 transformation: ((0 0 0) (-0.992454 (0 0 0.122615)))
AMI: Creating addressing and weights between 96 source faces and 96 target faces
AMI: Patch source sum(weights) min/max/average = 1.0002, 1.0002, 1.0002
AMI: Patch target sum(weights) min/max/average = 1.0002, 1.0002, 1.0002
GAMG:  Solving for pcorr, Initial residual = 1, Final residual = 0.0175344, No Iterations 5
time step continuity errors : sum local = 5.93196e-05, global = 4.77639e-05, cumulative = 0.00536023
PIMPLE: iteration 1
smoothSolver:  Solving for Ux, Initial residual = 0.0156302, Final residual = 0.000112898, No Iterations 2
smoothSolver:  Solving for Uy, Initial residual = 0.0156608, Final residual = 0.000112155, No Iterations 2
GAMG:  Solving for p, Initial residual = 0.0761827, Final residual = 0.000517398, No Iterations 3
time step continuity errors : sum local = 9.56142e-07, global = -4.17079e-08, cumulative = 0.00536019
PIMPLE: iteration 2
smoothSolver:  Solving for Ux, Initial residual = 0.000508942, Final residual = 3.39219e-07, No Iterations 3
smoothSolver:  Solving for Uy, Initial residual = 0.000542233, Final residual = 3.60409e-07, No Iterations 3
GAMG:  Solving for p, Initial residual = 0.0264335, Final residual = 8.07135e-07, No Iterations 13
time step continuity errors : sum local = 4.92115e-08, global = -4.79224e-08, cumulative = 0.00536015
ExecutionTime = 5.34 s  ClockTime = 5 s

Courant Number mean: 0.0967633 max: 0.49483
deltaT = 0.00434783
Time = 0.965217

solidBodyMotionFunctions::rotatingMotion::transformation(): Time = 0.965217 transformation: ((0 0 0) (-0.994036 (0 0 0.109048)))
AMI: Creating addressing and weights between 96 source faces and 96 target faces
AMI: Patch source sum(weights) min/max/average = 1.00024, 1.00024, 1.00024
AMI: Patch target sum(weights) min/max/average = 1.00024, 1.00024, 1.00024
GAMG:  Solving for pcorr, Initial residual = 1, Final residual = 0.0194253, No Iterations 6
time step continuity errors : sum local = 5.85972e-05, global = 4.75383e-05, cumulative = 0.00540768
PIMPLE: iteration 1
smoothSolver:  Solving for Ux, Initial residual = 0.0155777, Final residual = 0.000113115, No Iterations 2
smoothSolver:  Solving for Uy, Initial residual = 0.0156054, Final residual = 0.000112335, No Iterations 2
GAMG:  Solving for p, Initial residual = 0.076232, Final residual = 0.000539384, No Iterations 3
time step continuity errors : sum local = 9.81395e-07, global = -4.6476e-08, cumulative = 0.00540764
PIMPLE: iteration 2
smoothSolver:  Solving for Ux, Initial residual = 0.000497944, Final residual = 3.35045e-07, No Iterations 3
smoothSolver:  Solving for Uy, Initial residual = 0.000532364, Final residual = 3.51106e-07, No Iterations 3
GAMG:  Solving for p, Initial residual = 0.0259139, Final residual = 8.3956e-07, No Iterations 13
time step continuity errors : sum local = 5.2289e-08, global = -5.09477e-08, cumulative = 0.00540759
ExecutionTime = 5.36 s  ClockTime = 5 s

Courant Number mean: 0.0965898 max: 0.494344
deltaT = 0.00434783
Time = 0.969565

solidBodyMotionFunctions::rotatingMotion::transformation(): Time = 0.969565 transformation: ((0 0 0) (-0.995433 (0 0 0.095461)))
AMI: Creating addressing and weights between 96 source faces and 96 target faces
AMI: Patch source sum(weights) min/max/average = 1.00008, 1.00008, 1.00008
AMI: Patch target sum(weights) min/max/average = 1.00008, 1.00008, 1.00008
GAMG:  Solving for pcorr, Initial residual = 1, Final residual = 0.0142418, No Iterations 7
time step continuity errors : sum local = 5.63631e-05, global = 4.73279e-05, cumulative = 0.00545491
PIMPLE: iteration 1
smoothSolver:  Solving for Ux, Initial residual = 0.0155466, Final residual = 0.000113602, No Iterations 2
smoothSolver:  Solving for Uy, Initial residual = 0.0155675, Final residual = 0.000112758, No Iterations 2
GAMG:  Solving for p, Initial residual = 0.0722324, Final residual = 0.00044617, No Iterations 3
time step continuity errors : sum local = 8.22969e-07, global = -1.60175e-08, cumulative = 0.0054549
PIMPLE: iteration 2
smoothSolver:  Solving for Ux, Initial residual = 0.00051499, Final residual = 3.54594e-07, No Iterations 3
smoothSolver:  Solving for Uy, Initial residual = 0.000544696, Final residual = 3.56812e-07, No Iterations 3
GAMG:  Solving for p, Initial residual = 0.0268445, Final residual = 7.94102e-07, No Iterations 15
time step continuity errors : sum local = 1.8567e-08, global = -1.73502e-08, cumulative = 0.00545488
ExecutionTime = 5.38 s  ClockTime = 5 s

Courant Number mean: 0.0964329 max: 0.491528
deltaT = 0.00434783
Time = 0.973913

solidBodyMotionFunctions::rotatingMotion::transformation(): Time = 0.973913 transformation: ((0 0 0) (-0.996644 (0 0 0.0818557)))
AMI: Creating addressing and weights between 96 source faces and 96 target faces
AMI: Patch source sum(weights) min/max/average = 1.00027, 1.00027, 1.00027
AMI: Patch target sum(weights) min/max/average = 1.00027, 1.00027, 1.00027
GAMG:  Solving for pcorr, Initial residual = 1, Final residual = 0.0191247, No Iterations 5
time step continuity errors : sum local = 5.98612e-05, global = 4.71659e-05, cumulative = 0.00550205
PIMPLE: iteration 1
smoothSolver:  Solving for Ux, Initial residual = 0.0157609, Final residual = 0.000114481, No Iterations 2
smoothSolver:  Solving for Uy, Initial residual = 0.0157731, Final residual = 0.000113512, No Iterations 2
GAMG:  Solving for p, Initial residual = 0.0845499, Final residual = 0.00071235, No Iterations 3
time step continuity errors : sum local = 1.2855e-06, global = -6.54645e-08, cumulative = 0.00550198
PIMPLE: iteration 2
smoothSolver:  Solving for Ux, Initial residual = 0.000498366, Final residual = 3.46087e-07, No Iterations 3
smoothSolver:  Solving for Uy, Initial residual = 0.000541598, Final residual = 3.69983e-07, No Iterations 3
GAMG:  Solving for p, Initial residual = 0.0262152, Final residual = 8.47392e-07, No Iterations 13
time step continuity errors : sum local = 7.40315e-08, global = -7.26901e-08, cumulative = 0.00550191
ExecutionTime = 5.4 s  ClockTime = 5 s

Courant Number mean: 0.0962492 max: 0.488725
deltaT = 0.00434783
Time = 0.978261

solidBodyMotionFunctions::rotatingMotion::transformation(): Time = 0.978261 transformation: ((0 0 0) (-0.997669 (0 0 0.0682352)))
AMI: Creating addressing and weights between 96 source faces and 96 target faces
AMI: Patch source sum(weights) min/max/average = 1.00008, 1.00008, 1.00008
AMI: Patch target sum(weights) min/max/average = 1.00008, 1.00008, 1.00008
GAMG:  Solving for pcorr, Initial residual = 1, Final residual = 0.0128095, No Iterations 7
time step continuity errors : sum local = 5.49111e-05, global = 4.69067e-05, cumulative = 0.00554882
PIMPLE: iteration 1
smoothSolver:  Solving for Ux, Initial residual = 0.0155956, Final residual = 0.000115121, No Iterations 2
smoothSolver:  Solving for Uy, Initial residual = 0.0156124, Final residual = 0.000114123, No Iterations 2
GAMG:  Solving for p, Initial residual = 0.0707339, Final residual = 0.0006789, No Iterations 3
time step continuity errors : sum local = 1.23607e-06, global = -2.80199e-08, cumulative = 0.00554879
PIMPLE: iteration 2
smoothSolver:  Solving for Ux, Initial residual = 0.000510885, Final residual = 3.64579e-07, No Iterations 3
smoothSolver:  Solving for Uy, Initial residual = 0.000544268, Final residual = 3.74066e-07, No Iterations 3
GAMG:  Solving for p, Initial residual = 0.0266996, Final residual = 7.55651e-07, No Iterations 14
time step continuity errors : sum local = 3.20375e-08, global = -3.0652e-08, cumulative = 0.00554876
ExecutionTime = 5.42 s  ClockTime = 5 s

Courant Number mean: 0.0960563 max: 0.487244
deltaT = 0.00434783
Time = 0.982609

solidBodyMotionFunctions::rotatingMotion::transformation(): Time = 0.982609 transformation: ((0 0 0) (-0.998508 (0 0 0.054602)))
AMI: Creating addressing and weights between 96 source faces and 96 target faces
AMI: Patch source sum(weights) min/max/average = 1.00024, 1.00024, 1.00024
AMI: Patch target sum(weights) min/max/average = 1.00024, 1.00024, 1.00024
GAMG:  Solving for pcorr, Initial residual = 1, Final residual = 0.0117544, No Iterations 7
time step continuity errors : sum local = 5.41025e-05, global = 4.67631e-05, cumulative = 0.00559552
PIMPLE: iteration 1
smoothSolver:  Solving for Ux, Initial residual = 0.0158191, Final residual = 0.000116249, No Iterations 2
smoothSolver:  Solving for Uy, Initial residual = 0.0158181, Final residual = 0.00011511, No Iterations 2
GAMG:  Solving for p, Initial residual = 0.081937, Final residual = 0.000740661, No Iterations 3
time step continuity errors : sum local = 1.32892e-06, global = -7.52821e-08, cumulative = 0.00559544
PIMPLE: iteration 2
smoothSolver:  Solving for Ux, Initial residual = 0.000497958, Final residual = 3.61713e-07, No Iterations 3
smoothSolver:  Solving for Uy, Initial residual = 0.000540866, Final residual = 3.76989e-07, No Iterations 3
GAMG:  Solving for p, Initial residual = 0.0267093, Final residual = 7.19479e-07, No Iterations 14
time step continuity errors : sum local = 8.49676e-08, global = -8.3638e-08, cumulative = 0.00559536
ExecutionTime = 5.44 s  ClockTime = 6 s

Courant Number mean: 0.0958875 max: 0.483969
deltaT = 0.00434783
Time = 0.986957

solidBodyMotionFunctions::rotatingMotion::transformation(): Time = 0.986957 transformation: ((0 0 0) (-0.999161 (0 0 0.0409586)))
AMI: Creating addressing and weights between 96 source faces and 96 target faces
AMI: Patch source sum(weights) min/max/average = 1.0002, 1.0002, 1.0002
AMI: Patch target sum(weights) min/max/average = 1.0002, 1.0002, 1.0002
GAMG:  Solving for pcorr, Initial residual = 1, Final residual = 0.0198399, No Iterations 6
time step continuity errors : sum local = 5.77524e-05, global = 4.6518e-05, cumulative = 0.00564188
PIMPLE: iteration 1
smoothSolver:  Solving for Ux, Initial residual = 0.0157894, Final residual = 0.000117208, No Iterations 2
smoothSolver:  Solving for Uy, Initial residual = 0.0157886, Final residual = 0.000116068, No Iterations 2
GAMG:  Solving for p, Initial residual = 0.0751593, Final residual = 0.000645382, No Iterations 3
time step continuity errors : sum local = 1.2523e-06, global = -6.45398e-08, cumulative = 0.00564181
PIMPLE: iteration 2
smoothSolver:  Solving for Ux, Initial residual = 0.000491429, Final residual = 3.70088e-07, No Iterations 3
smoothSolver:  Solving for Uy, Initial residual = 0.000531199, Final residual = 3.81645e-07, No Iterations 3
GAMG:  Solving for p, Initial residual = 0.0257373, Final residual = 9.37115e-07, No Iterations 14
time step continuity errors : sum local = 7.24568e-08, global = -7.07068e-08, cumulative = 0.00564174
ExecutionTime = 5.46 s  ClockTime = 6 s

Courant Number mean: 0.0957534 max: 0.480428
deltaT = 0.00434783
Time = 0.991304

solidBodyMotionFunctions::rotatingMotion::transformation(): Time = 0.991304 transformation: ((0 0 0) (-0.999627 (0 0 0.0273075)))
AMI: Creating addressing and weights between 96 source faces and 96 target faces
AMI: Patch source sum(weights) min/max/average = 1.00015, 1.00015, 1.00015
AMI: Patch target sum(weights) min/max/average = 1.00015, 1.00015, 1.00015
GAMG:  Solving for pcorr, Initial residual = 1, Final residual = 0.0149073, No Iterations 7
time step continuity errors : sum local = 5.58189e-05, global = 4.63499e-05, cumulative = 0.00568809
PIMPLE: iteration 1
smoothSolver:  Solving for Ux, Initial residual = 0.0158269, Final residual = 0.000118742, No Iterations 2
smoothSolver:  Solving for Uy, Initial residual = 0.0158128, Final residual = 0.000117484, No Iterations 2
GAMG:  Solving for p, Initial residual = 0.0713713, Final residual = 0.000339073, No Iterations 3
time step continuity errors : sum local = 6.38521e-07, global = -5.54707e-08, cumulative = 0.00568804
PIMPLE: iteration 2
smoothSolver:  Solving for Ux, Initial residual = 0.000497256, Final residual = 3.86745e-07, No Iterations 3
smoothSolver:  Solving for Uy, Initial residual = 0.000537808, Final residual = 4.02056e-07, No Iterations 3
GAMG:  Solving for p, Initial residual = 0.0262167, Final residual = 7.93633e-07, No Iterations 16
time step continuity errors : sum local = 5.91877e-08, global = -5.76836e-08, cumulative = 0.00568798
ExecutionTime = 5.48 s  ClockTime = 6 s

Courant Number mean: 0.0956547 max: 0.47816
deltaT = 0.00434783
Time = 0.995652

solidBodyMotionFunctions::rotatingMotion::transformation(): Time = 0.995652 transformation: ((0 0 0) (-0.999907 (0 0 0.0136514)))
AMI: Creating addressing and weights between 96 source faces and 96 target faces
AMI: Patch source sum(weights) min/max/average = 1.00026, 1.00026, 1.00026
AMI: Patch target sum(weights) min/max/average = 1.00026, 1.00026, 1.00026
GAMG:  Solving for pcorr, Initial residual = 1, Final residual = 0.0175435, No Iterations 5
time step continuity errors : sum local = 5.77531e-05, global = 4.61872e-05, cumulative = 0.00573417
PIMPLE: iteration 1
smoothSolver:  Solving for Ux, Initial residual = 0.0159205, Final residual = 0.000120484, No Iterations 2
smoothSolver:  Solving for Uy, Initial residual = 0.0159055, Final residual = 0.000119278, No Iterations 2
GAMG:  Solving for p, Initial residual = 0.0810167, Final residual = 0.000641916, No Iterations 3
time step continuity errors : sum local = 1.23743e-06, global = -9.16408e-08, cumulative = 0.00573408
PIMPLE: iteration 2
smoothSolver:  Solving for Ux, Initial residual = 0.000498528, Final residual = 3.93716e-07, No Iterations 3
smoothSolver:  Solving for Uy, Initial residual = 0.000541963, Final residual = 4.19615e-07, No Iterations 3
GAMG:  Solving for p, Initial residual = 0.0260665, Final residual = 6.1095e-07, No Iterations 14
time step continuity errors : sum local = 9.94444e-08, global = -9.82955e-08, cumulative = 0.00573398
ExecutionTime = 5.5 s  ClockTime = 6 s

Courant Number mean: 0.0955539 max: 0.474418
deltaT = 0.00434783
Time = 1

solidBodyMotionFunctions::rotatingMotion::transformation(): Time = 1 transformation: ((0 0 0) (-1 (0 0 -7.34641e-06)))
AMI: Creating addressing and weights between 96 source faces and 96 target faces
AMI: Patch source sum(weights) min/max/average = 1, 1, 1
AMI: Patch target sum(weights) min/max/average = 1, 1, 1
GAMG:  Solving for pcorr, Initial residual = 1, Final residual = 0.0136917, No Iterations 7
time step continuity errors : sum local = 5.46509e-05, global = 4.59672e-05, cumulative = 0.00577994
PIMPLE: iteration 1
smoothSolver:  Solving for Ux, Initial residual = 0.0159148, Final residual = 0.000122305, No Iterations 2
smoothSolver:  Solving for Uy, Initial residual = 0.0158914, Final residual = 0.000121091, No Iterations 2
GAMG:  Solving for p, Initial residual = 0.0713022, Final residual = 0.000519769, No Iterations 3
time step continuity errors : sum local = 9.68769e-07, global = -1.12901e-10, cumulative = 0.00577994
PIMPLE: iteration 2
smoothSolver:  Solving for Ux, Initial residual = 0.000521911, Final residual = 4.31435e-07, No Iterations 3
smoothSolver:  Solving for Uy, Initial residual = 0.00055254, Final residual = 4.40774e-07, No Iterations 3
GAMG:  Solving for p, Initial residual = 0.0267499, Final residual = 8.61098e-07, No Iterations 17
time step continuity errors : sum local = 1.61788e-09, global = -1.22063e-10, cumulative = 0.00577994
ExecutionTime = 5.53 s  ClockTime = 6 s

End

Finalising parallel run
