/*---------------------------------------------------------------------------*\
| =========                 |                                                 |
| \\      /  F ield         | OpenFOAM: The Open Source CFD Toolbox           |
|  \\    /   O peration     | Version:  2.3.1                                 |
|   \\  /    A nd           | Web:      www.OpenFOAM.org                      |
|    \\/     M anipulation  |                                                 |
\*---------------------------------------------------------------------------*/
Build  : 2.3.1-bcfaaa7b8660
Exec   : simpleFoam
Date   : May 13 2015
Time   : 13:03:49
Host   : "lordvon-XPS-8300"
PID    : 9414
Case   : /home/lordvon/Desktop/OpenFOAM_Tutorials/InProgress/HowToPlotForces/airFoil2D_new
nProcs : 1
sigFpe : Enabling floating point exception trapping (FOAM_SIGFPE).
fileModificationChecking : Monitoring run-time modified files using timeStampMaster
allowSystemOperations : Allowing user-supplied system call operations

// * * * * * * * * * * * * * * * * * * * * * * * * * * * * * * * * * * * * * //
Create time

Create mesh for time = 0

Reading field p

Reading field U

Reading/calculating face flux field phi

Selecting incompressible transport model Newtonian
Selecting RAS turbulence model SpalartAllmaras
SpalartAllmarasCoeffs
{
    sigmaNut        0.66666;
    kappa           0.41;
    Cb1             0.1355;
    Cb2             0.622;
    Cw2             0.3;
    Cw3             2;
    Cv1             7.1;
    Cv2             5;
}

    Employing Ashford correction
No finite volume options present


SIMPLE: convergence criteria
    field p	 tolerance 1e-05
    field U	 tolerance 1e-05
    field nuTilda	 tolerance 1e-05


Starting time loop

forces airfoil:
    Not including porosity effects

Time = 1

smoothSolver:  Solving for Ux, Initial residual = 1, Final residual = 0.0609424, No Iterations 2
smoothSolver:  Solving for Uy, Initial residual = 1, Final residual = 0.0558186, No Iterations 2
GAMG:  Solving for p, Initial residual = 1, Final residual = 0.0966006, No Iterations 7
time step continuity errors : sum local = 0.000301139, global = 2.78251e-17, cumulative = 2.78251e-17
smoothSolver:  Solving for nuTilda, Initial residual = 1, Final residual = 0.0452781, No Iterations 2
ExecutionTime = 0.09 s  ClockTime = 0 s

Time = 2

smoothSolver:  Solving for Ux, Initial residual = 0.431208, Final residual = 0.0175148, No Iterations 4
smoothSolver:  Solving for Uy, Initial residual = 0.549, Final residual = 0.0166305, No Iterations 4
GAMG:  Solving for p, Initial residual = 0.763518, Final residual = 0.0600022, No Iterations 5
time step continuity errors : sum local = 0.000383967, global = 4.71065e-17, cumulative = 7.49316e-17
smoothSolver:  Solving for nuTilda, Initial residual = 0.138925, Final residual = 0.00977621, No Iterations 2
ExecutionTime = 0.11 s  ClockTime = 0 s

Time = 3

smoothSolver:  Solving for Ux, Initial residual = 0.174622, Final residual = 0.00729168, No Iterations 4
smoothSolver:  Solving for Uy, Initial residual = 0.156578, Final residual = 0.00588484, No Iterations 4
GAMG:  Solving for p, Initial residual = 0.732293, Final residual = 0.0512264, No Iterations 7
time step continuity errors : sum local = 0.000386161, global = 3.98054e-17, cumulative = 1.14737e-16
smoothSolver:  Solving for nuTilda, Initial residual = 0.128233, Final residual = 0.00311116, No Iterations 4
ExecutionTime = 0.13 s  ClockTime = 0 s

Time = 4

smoothSolver:  Solving for Ux, Initial residual = 0.0622423, Final residual = 0.00496229, No Iterations 2
smoothSolver:  Solving for Uy, Initial residual = 0.0586926, Final residual = 0.00235648, No Iterations 4
GAMG:  Solving for p, Initial residual = 0.678181, Final residual = 0.0569501, No Iterations 6
time step continuity errors : sum local = 0.000348694, global = 2.46173e-17, cumulative = 1.39354e-16
smoothSolver:  Solving for nuTilda, Initial residual = 0.171475, Final residual = 0.0052169, No Iterations 4
ExecutionTime = 0.16 s  ClockTime = 0 s

Time = 5

smoothSolver:  Solving for Ux, Initial residual = 0.140759, Final residual = 0.00564529, No Iterations 4
smoothSolver:  Solving for Uy, Initial residual = 0.150585, Final residual = 0.00437777, No Iterations 4
GAMG:  Solving for p, Initial residual = 0.793508, Final residual = 0.0336805, No Iterations 5
time step continuity errors : sum local = 0.000222873, global = 2.76307e-17, cumulative = 1.66985e-16
smoothSolver:  Solving for nuTilda, Initial residual = 0.119199, Final residual = 0.00343922, No Iterations 4
ExecutionTime = 0.18 s  ClockTime = 0 s

forces airfoil output:
    sum of forces:
        pressure : (-405.419 -541.058 -2.59819e-13)
        viscous  : (0.0477285 0.0103524 -3.14724e-18)
        porous   : (0 0 0)
    sum of moments:
        pressure : (13.5265 -10.1355 -519.103)
        viscous  : (-0.000258811 0.00119321 0.074454)
        porous   : (0 0 0)

Time = 6

smoothSolver:  Solving for Ux, Initial residual = 0.150705, Final residual = 0.00687835, No Iterations 4
smoothSolver:  Solving for Uy, Initial residual = 0.172453, Final residual = 0.00663391, No Iterations 4
GAMG:  Solving for p, Initial residual = 0.725593, Final residual = 0.0489584, No Iterations 7
time step continuity errors : sum local = 0.000327721, global = 3.30954e-17, cumulative = 2.0008e-16
smoothSolver:  Solving for nuTilda, Initial residual = 0.0868518, Final residual = 0.00269988, No Iterations 4
ExecutionTime = 0.21 s  ClockTime = 0 s

Time = 7

smoothSolver:  Solving for Ux, Initial residual = 0.12502, Final residual = 0.00976552, No Iterations 2
smoothSolver:  Solving for Uy, Initial residual = 0.127924, Final residual = 0.0114928, No Iterations 2
GAMG:  Solving for p, Initial residual = 0.801544, Final residual = 0.0589243, No Iterations 5
time step continuity errors : sum local = 0.000327062, global = 2.5521e-17, cumulative = 2.25601e-16
smoothSolver:  Solving for nuTilda, Initial residual = 0.0709803, Final residual = 0.00221391, No Iterations 4
ExecutionTime = 0.23 s  ClockTime = 0 s

Time = 8

smoothSolver:  Solving for Ux, Initial residual = 0.125739, Final residual = 0.003857, No Iterations 4
smoothSolver:  Solving for Uy, Initial residual = 0.118166, Final residual = 0.0103941, No Iterations 2
GAMG:  Solving for p, Initial residual = 0.794235, Final residual = 0.036068, No Iterations 5
time step continuity errors : sum local = 0.000224728, global = 3.01108e-17, cumulative = 2.55712e-16
smoothSolver:  Solving for nuTilda, Initial residual = 0.0574265, Final residual = 0.00197233, No Iterations 4
ExecutionTime = 0.25 s  ClockTime = 0 s

Time = 9

smoothSolver:  Solving for Ux, Initial residual = 0.083977, Final residual = 0.00304851, No Iterations 4
smoothSolver:  Solving for Uy, Initial residual = 0.0779782, Final residual = 0.00257833, No Iterations 4
GAMG:  Solving for p, Initial residual = 0.708897, Final residual = 0.0676326, No Iterations 4
time step continuity errors : sum local = 0.000408551, global = 3.60852e-17, cumulative = 2.91797e-16
smoothSolver:  Solving for nuTilda, Initial residual = 0.0464249, Final residual = 0.00160318, No Iterations 4
ExecutionTime = 0.27 s  ClockTime = 0 s

Time = 10

smoothSolver:  Solving for Ux, Initial residual = 0.0719466, Final residual = 0.00683699, No Iterations 2
smoothSolver:  Solving for Uy, Initial residual = 0.0675023, Final residual = 0.00260309, No Iterations 4
GAMG:  Solving for p, Initial residual = 0.683578, Final residual = 0.0482795, No Iterations 5
time step continuity errors : sum local = 0.000283054, global = 1.6591e-17, cumulative = 3.08388e-16
smoothSolver:  Solving for nuTilda, Initial residual = 0.0398668, Final residual = 0.00141636, No Iterations 4
ExecutionTime = 0.29 s  ClockTime = 0 s

forces airfoil output:
    sum of forces:
        pressure : (-112.065 71.3979 2.41896e-14)
        viscous  : (0.674701 0.0393408 -7.23453e-18)
        porous   : (0 0 0)
    sum of moments:
        pressure : (-1.78495 -2.80164 -3768.03)
        viscous  : (-0.000983519 0.0168675 0.113042)
        porous   : (0 0 0)

Time = 11

smoothSolver:  Solving for Ux, Initial residual = 0.0712493, Final residual = 0.00698008, No Iterations 2
smoothSolver:  Solving for Uy, Initial residual = 0.0722184, Final residual = 0.00232882, No Iterations 4
GAMG:  Solving for p, Initial residual = 0.745499, Final residual = 0.0657072, No Iterations 4
time step continuity errors : sum local = 0.000389653, global = 1.97647e-17, cumulative = 3.28153e-16
smoothSolver:  Solving for nuTilda, Initial residual = 0.0396945, Final residual = 0.00128011, No Iterations 4
ExecutionTime = 0.31 s  ClockTime = 0 s

Time = 12

smoothSolver:  Solving for Ux, Initial residual = 0.0724859, Final residual = 0.00277367, No Iterations 4
smoothSolver:  Solving for Uy, Initial residual = 0.0689958, Final residual = 0.00229138, No Iterations 4
GAMG:  Solving for p, Initial residual = 0.710214, Final residual = 0.0447343, No Iterations 5
time step continuity errors : sum local = 0.000247537, global = 2.28728e-17, cumulative = 3.51026e-16
smoothSolver:  Solving for nuTilda, Initial residual = 0.0357853, Final residual = 0.00123001, No Iterations 4
ExecutionTime = 0.33 s  ClockTime = 0 s

Time = 13

smoothSolver:  Solving for Ux, Initial residual = 0.0784729, Final residual = 0.00712387, No Iterations 2
smoothSolver:  Solving for Uy, Initial residual = 0.0692883, Final residual = 0.00202493, No Iterations 4
GAMG:  Solving for p, Initial residual = 0.743205, Final residual = 0.0600953, No Iterations 4
time step continuity errors : sum local = 0.000299907, global = -4.3875e-18, cumulative = 3.46638e-16
smoothSolver:  Solving for nuTilda, Initial residual = 0.0340904, Final residual = 0.0011273, No Iterations 4
ExecutionTime = 0.35 s  ClockTime = 0 s

Time = 14

smoothSolver:  Solving for Ux, Initial residual = 0.0673882, Final residual = 0.00525542, No Iterations 2
smoothSolver:  Solving for Uy, Initial residual = 0.0641748, Final residual = 0.00521442, No Iterations 2
GAMG:  Solving for p, Initial residual = 0.755451, Final residual = 0.0740254, No Iterations 4
time step continuity errors : sum local = 0.000385735, global = 4.02599e-17, cumulative = 3.86898e-16
smoothSolver:  Solving for nuTilda, Initial residual = 0.0311723, Final residual = 0.00105721, No Iterations 4
ExecutionTime = 0.37 s  ClockTime = 0 s

Time = 15

smoothSolver:  Solving for Ux, Initial residual = 0.0541054, Final residual = 0.00183477, No Iterations 4
smoothSolver:  Solving for Uy, Initial residual = 0.0571689, Final residual = 0.00161997, No Iterations 4
GAMG:  Solving for p, Initial residual = 0.687832, Final residual = 0.0603796, No Iterations 4
time step continuity errors : sum local = 0.000312376, global = 7.19864e-18, cumulative = 3.94097e-16
smoothSolver:  Solving for nuTilda, Initial residual = 0.030453, Final residual = 0.0009767, No Iterations 4
ExecutionTime = 0.4 s  ClockTime = 1 s

forces airfoil output:
    sum of forces:
        pressure : (86.2812 521.236 7.52395e-14)
        viscous  : (2.95385 0.319572 -7.78655e-17)
        porous   : (0 0 0)
    sum of moments:
        pressure : (-13.0309 2.15703 -3258.04)
        viscous  : (-0.00798931 0.0738463 -1.78982)
        porous   : (0 0 0)

Time = 16

smoothSolver:  Solving for Ux, Initial residual = 0.0601144, Final residual = 0.00180456, No Iterations 4
smoothSolver:  Solving for Uy, Initial residual = 0.0528949, Final residual = 0.00209602, No Iterations 4
GAMG:  Solving for p, Initial residual = 0.651122, Final residual = 0.048264, No Iterations 4
time step continuity errors : sum local = 0.000249647, global = 2.2589e-17, cumulative = 4.16686e-16
smoothSolver:  Solving for nuTilda, Initial residual = 0.0279422, Final residual = 0.000911818, No Iterations 4
ExecutionTime = 0.42 s  ClockTime = 1 s

Time = 17

smoothSolver:  Solving for Ux, Initial residual = 0.0585475, Final residual = 0.00499484, No Iterations 2
smoothSolver:  Solving for Uy, Initial residual = 0.0512135, Final residual = 0.00190367, No Iterations 4
GAMG:  Solving for p, Initial residual = 0.665396, Final residual = 0.0500707, No Iterations 4
time step continuity errors : sum local = 0.00025925, global = 8.70405e-18, cumulative = 4.2539e-16
smoothSolver:  Solving for nuTilda, Initial residual = 0.0270984, Final residual = 0.000861007, No Iterations 4
ExecutionTime = 0.44 s  ClockTime = 1 s

Time = 18

smoothSolver:  Solving for Ux, Initial residual = 0.0472057, Final residual = 0.0014718, No Iterations 4
smoothSolver:  Solving for Uy, Initial residual = 0.046723, Final residual = 0.00148336, No Iterations 4
GAMG:  Solving for p, Initial residual = 0.655655, Final residual = 0.0505956, No Iterations 4
time step continuity errors : sum local = 0.000248491, global = 3.28563e-17, cumulative = 4.58246e-16
smoothSolver:  Solving for nuTilda, Initial residual = 0.0255953, Final residual = 0.000818129, No Iterations 4
ExecutionTime = 0.46 s  ClockTime = 1 s

Time = 19

smoothSolver:  Solving for Ux, Initial residual = 0.0498251, Final residual = 0.00153377, No Iterations 4
smoothSolver:  Solving for Uy, Initial residual = 0.0474515, Final residual = 0.00155479, No Iterations 4
GAMG:  Solving for p, Initial residual = 0.665189, Final residual = 0.0658219, No Iterations 4
time step continuity errors : sum local = 0.00031046, global = 1.95966e-17, cumulative = 4.77843e-16
smoothSolver:  Solving for nuTilda, Initial residual = 0.024537, Final residual = 0.000773921, No Iterations 4
ExecutionTime = 0.48 s  ClockTime = 1 s

Time = 20

smoothSolver:  Solving for Ux, Initial residual = 0.0498403, Final residual = 0.00377912, No Iterations 2
smoothSolver:  Solving for Uy, Initial residual = 0.0485369, Final residual = 0.00456108, No Iterations 2
GAMG:  Solving for p, Initial residual = 0.66431, Final residual = 0.060334, No Iterations 4
time step continuity errors : sum local = 0.000274447, global = 4.63419e-17, cumulative = 5.24185e-16
smoothSolver:  Solving for nuTilda, Initial residual = 0.0237093, Final residual = 0.000726627, No Iterations 4
ExecutionTime = 0.5 s  ClockTime = 1 s

forces airfoil output:
    sum of forces:
        pressure : (-12.7629 441.378 2.05378e-14)
        viscous  : (2.8504 0.309174 1.36176e-16)
        porous   : (0 0 0)
    sum of moments:
        pressure : (-11.0344 -0.319073 -2569.96)
        viscous  : (-0.00772935 0.0712601 -3.05319)
        porous   : (0 0 0)

Time = 21

smoothSolver:  Solving for Ux, Initial residual = 0.0422199, Final residual = 0.00419827, No Iterations 2
smoothSolver:  Solving for Uy, Initial residual = 0.0485198, Final residual = 0.00462057, No Iterations 2
GAMG:  Solving for p, Initial residual = 0.632764, Final residual = 0.0361869, No Iterations 6
time step continuity errors : sum local = 0.000164875, global = 2.40183e-17, cumulative = 5.48203e-16
smoothSolver:  Solving for nuTilda, Initial residual = 0.0225622, Final residual = 0.000681281, No Iterations 4
ExecutionTime = 0.52 s  ClockTime = 1 s

Time = 22

smoothSolver:  Solving for Ux, Initial residual = 0.0403239, Final residual = 0.00131658, No Iterations 4
smoothSolver:  Solving for Uy, Initial residual = 0.0413037, Final residual = 0.00166775, No Iterations 4
GAMG:  Solving for p, Initial residual = 0.623642, Final residual = 0.0530205, No Iterations 4
time step continuity errors : sum local = 0.000239516, global = 8.12869e-18, cumulative = 5.56332e-16
smoothSolver:  Solving for nuTilda, Initial residual = 0.0221245, Final residual = 0.000631413, No Iterations 4
ExecutionTime = 0.54 s  ClockTime = 1 s

Time = 23

smoothSolver:  Solving for Ux, Initial residual = 0.0418782, Final residual = 0.00387767, No Iterations 2
smoothSolver:  Solving for Uy, Initial residual = 0.0384807, Final residual = 0.0016328, No Iterations 4
GAMG:  Solving for p, Initial residual = 0.610145, Final residual = 0.0466843, No Iterations 4
time step continuity errors : sum local = 0.000202682, global = 3.37863e-18, cumulative = 5.5971e-16
smoothSolver:  Solving for nuTilda, Initial residual = 0.0210548, Final residual = 0.000572616, No Iterations 4
ExecutionTime = 0.57 s  ClockTime = 1 s

Time = 24

smoothSolver:  Solving for Ux, Initial residual = 0.0377441, Final residual = 0.00101246, No Iterations 4
smoothSolver:  Solving for Uy, Initial residual = 0.0394113, Final residual = 0.00125132, No Iterations 4
GAMG:  Solving for p, Initial residual = 0.617301, Final residual = 0.0486804, No Iterations 5
time step continuity errors : sum local = 0.000200697, global = 3.69206e-17, cumulative = 5.96631e-16
smoothSolver:  Solving for nuTilda, Initial residual = 0.0205682, Final residual = 0.000521353, No Iterations 4
ExecutionTime = 0.59 s  ClockTime = 1 s

Time = 25

smoothSolver:  Solving for Ux, Initial residual = 0.03697, Final residual = 0.00113242, No Iterations 4
smoothSolver:  Solving for Uy, Initial residual = 0.0378219, Final residual = 0.00119094, No Iterations 4
GAMG:  Solving for p, Initial residual = 0.623565, Final residual = 0.0359645, No Iterations 5
time step continuity errors : sum local = 0.000143866, global = -1.49411e-17, cumulative = 5.8169e-16
smoothSolver:  Solving for nuTilda, Initial residual = 0.0197561, Final residual = 0.000488382, No Iterations 4
ExecutionTime = 0.61 s  ClockTime = 1 s

forces airfoil output:
    sum of forces:
        pressure : (-52.3735 337.74 3.12766e-14)
        viscous  : (2.89973 0.336306 -2.91472e-17)
        porous   : (0 0 0)
    sum of moments:
        pressure : (-8.44349 -1.30934 -3799.65)
        viscous  : (-0.00840765 0.0724932 -3.92253)
        porous   : (0 0 0)

Time = 26

smoothSolver:  Solving for Ux, Initial residual = 0.0372328, Final residual = 0.00309876, No Iterations 2
smoothSolver:  Solving for Uy, Initial residual = 0.0364437, Final residual = 0.00122855, No Iterations 4
GAMG:  Solving for p, Initial residual = 0.60241, Final residual = 0.0531394, No Iterations 4
time step continuity errors : sum local = 0.000205217, global = 3.061e-17, cumulative = 6.123e-16
smoothSolver:  Solving for nuTilda, Initial residual = 0.0191586, Final residual = 0.000454425, No Iterations 4
ExecutionTime = 0.63 s  ClockTime = 1 s

Time = 27

smoothSolver:  Solving for Ux, Initial residual = 0.031617, Final residual = 0.00262677, No Iterations 2
smoothSolver:  Solving for Uy, Initial residual = 0.0388768, Final residual = 0.00376612, No Iterations 2
GAMG:  Solving for p, Initial residual = 0.578867, Final residual = 0.0540943, No Iterations 5
time step continuity errors : sum local = 0.000200648, global = 4.26086e-17, cumulative = 6.54909e-16
smoothSolver:  Solving for nuTilda, Initial residual = 0.0186126, Final residual = 0.0004161, No Iterations 4
ExecutionTime = 0.65 s  ClockTime = 1 s

Time = 28

smoothSolver:  Solving for Ux, Initial residual = 0.028715, Final residual = 0.000910113, No Iterations 4
smoothSolver:  Solving for Uy, Initial residual = 0.0375174, Final residual = 0.00117221, No Iterations 4
GAMG:  Solving for p, Initial residual = 0.58408, Final residual = 0.049144, No Iterations 5
time step continuity errors : sum local = 0.000179721, global = 4.40405e-17, cumulative = 6.98949e-16
smoothSolver:  Solving for nuTilda, Initial residual = 0.0182412, Final residual = 0.000375544, No Iterations 4
ExecutionTime = 0.67 s  ClockTime = 1 s

Time = 29

smoothSolver:  Solving for Ux, Initial residual = 0.0315071, Final residual = 0.000913632, No Iterations 4
smoothSolver:  Solving for Uy, Initial residual = 0.0314341, Final residual = 0.00119349, No Iterations 4
GAMG:  Solving for p, Initial residual = 0.566729, Final residual = 0.0297373, No Iterations 5
time step continuity errors : sum local = 0.000105607, global = 1.40873e-17, cumulative = 7.13036e-16
smoothSolver:  Solving for nuTilda, Initial residual = 0.0178774, Final residual = 0.000352988, No Iterations 4
ExecutionTime = 0.7 s  ClockTime = 1 s

Time = 30

smoothSolver:  Solving for Ux, Initial residual = 0.0304915, Final residual = 0.000790326, No Iterations 4
smoothSolver:  Solving for Uy, Initial residual = 0.0307026, Final residual = 0.00105708, No Iterations 4
GAMG:  Solving for p, Initial residual = 0.548748, Final residual = 0.030033, No Iterations 5
time step continuity errors : sum local = 0.000102918, global = 5.44365e-17, cumulative = 7.67473e-16
smoothSolver:  Solving for nuTilda, Initial residual = 0.0174474, Final residual = 0.000330985, No Iterations 4
ExecutionTime = 0.72 s  ClockTime = 1 s

forces airfoil output:
    sum of forces:
        pressure : (-38.7367 355.717 1.81599e-14)
        viscous  : (2.99298 0.346679 7.64212e-17)
        porous   : (0 0 0)
    sum of moments:
        pressure : (-8.89292 -0.968418 -4703.45)
        viscous  : (-0.00866697 0.0748244 -4.55666)
        porous   : (0 0 0)

Time = 31

smoothSolver:  Solving for Ux, Initial residual = 0.0310922, Final residual = 0.000923749, No Iterations 4
smoothSolver:  Solving for Uy, Initial residual = 0.0299871, Final residual = 0.000949737, No Iterations 4
GAMG:  Solving for p, Initial residual = 0.533963, Final residual = 0.0329806, No Iterations 5
time step continuity errors : sum local = 0.000109407, global = 3.37627e-17, cumulative = 8.01235e-16
smoothSolver:  Solving for nuTilda, Initial residual = 0.0171917, Final residual = 0.000308493, No Iterations 4
ExecutionTime = 0.74 s  ClockTime = 1 s

Time = 32

smoothSolver:  Solving for Ux, Initial residual = 0.0300157, Final residual = 0.00279132, No Iterations 2
smoothSolver:  Solving for Uy, Initial residual = 0.0266779, Final residual = 0.000915205, No Iterations 4
GAMG:  Solving for p, Initial residual = 0.521124, Final residual = 0.032329, No Iterations 5
time step continuity errors : sum local = 0.000103097, global = 2.65641e-17, cumulative = 8.278e-16
smoothSolver:  Solving for nuTilda, Initial residual = 0.0169382, Final residual = 0.000296073, No Iterations 4
ExecutionTime = 0.76 s  ClockTime = 1 s

Time = 33

smoothSolver:  Solving for Ux, Initial residual = 0.0255469, Final residual = 0.0022619, No Iterations 2
smoothSolver:  Solving for Uy, Initial residual = 0.025476, Final residual = 0.000757361, No Iterations 4
GAMG:  Solving for p, Initial residual = 0.510428, Final residual = 0.0289678, No Iterations 5
time step continuity errors : sum local = 8.82376e-05, global = 2.40734e-17, cumulative = 8.51873e-16
smoothSolver:  Solving for nuTilda, Initial residual = 0.0168391, Final residual = 0.000288221, No Iterations 4
ExecutionTime = 0.78 s  ClockTime = 1 s

Time = 34

smoothSolver:  Solving for Ux, Initial residual = 0.0231518, Final residual = 0.00065426, No Iterations 4
smoothSolver:  Solving for Uy, Initial residual = 0.0256028, Final residual = 0.00237573, No Iterations 2
GAMG:  Solving for p, Initial residual = 0.494201, Final residual = 0.041096, No Iterations 5
time step continuity errors : sum local = 0.000119784, global = 3.02842e-17, cumulative = 8.82157e-16
smoothSolver:  Solving for nuTilda, Initial residual = 0.0169741, Final residual = 0.000287491, No Iterations 4
ExecutionTime = 0.8 s  ClockTime = 1 s

Time = 35

smoothSolver:  Solving for Ux, Initial residual = 0.0251316, Final residual = 0.000731429, No Iterations 4
smoothSolver:  Solving for Uy, Initial residual = 0.0238177, Final residual = 0.000795072, No Iterations 4
GAMG:  Solving for p, Initial residual = 0.491727, Final residual = 0.0447797, No Iterations 5
time step continuity errors : sum local = 0.000127838, global = 2.20478e-17, cumulative = 9.04205e-16
smoothSolver:  Solving for nuTilda, Initial residual = 0.0169948, Final residual = 0.000286641, No Iterations 4
ExecutionTime = 0.83 s  ClockTime = 1 s

forces airfoil output:
    sum of forces:
        pressure : (-33.2704 458.128 1.149e-14)
        viscous  : (2.99753 0.351696 1.31745e-16)
        porous   : (0 0 0)
    sum of moments:
        pressure : (-11.4532 -0.831759 -4537.1)
        viscous  : (-0.0087924 0.0749383 -5.16235)
        porous   : (0 0 0)

Time = 36

smoothSolver:  Solving for Ux, Initial residual = 0.0250209, Final residual = 0.000693993, No Iterations 4
smoothSolver:  Solving for Uy, Initial residual = 0.0216298, Final residual = 0.000917691, No Iterations 4
GAMG:  Solving for p, Initial residual = 0.476578, Final residual = 0.0317797, No Iterations 5
time step continuity errors : sum local = 8.83906e-05, global = 1.67487e-17, cumulative = 9.20954e-16
smoothSolver:  Solving for nuTilda, Initial residual = 0.0171141, Final residual = 0.000283477, No Iterations 4
ExecutionTime = 0.85 s  ClockTime = 1 s

Time = 37

smoothSolver:  Solving for Ux, Initial residual = 0.0231258, Final residual = 0.000694127, No Iterations 4
smoothSolver:  Solving for Uy, Initial residual = 0.0206765, Final residual = 0.00086739, No Iterations 4
GAMG:  Solving for p, Initial residual = 0.443956, Final residual = 0.0275165, No Iterations 5
time step continuity errors : sum local = 7.38643e-05, global = 2.77266e-17, cumulative = 9.4868e-16
smoothSolver:  Solving for nuTilda, Initial residual = 0.0173605, Final residual = 0.000281868, No Iterations 4
ExecutionTime = 0.87 s  ClockTime = 1 s

Time = 38

smoothSolver:  Solving for Ux, Initial residual = 0.0241236, Final residual = 0.00076033, No Iterations 4
smoothSolver:  Solving for Uy, Initial residual = 0.0202434, Final residual = 0.000783952, No Iterations 4
GAMG:  Solving for p, Initial residual = 0.434139, Final residual = 0.0307645, No Iterations 5
time step continuity errors : sum local = 7.8861e-05, global = 3.9716e-17, cumulative = 9.88396e-16
smoothSolver:  Solving for nuTilda, Initial residual = 0.0177451, Final residual = 0.00173785, No Iterations 2
ExecutionTime = 0.89 s  ClockTime = 1 s

Time = 39

smoothSolver:  Solving for Ux, Initial residual = 0.0240967, Final residual = 0.000686361, No Iterations 4
smoothSolver:  Solving for Uy, Initial residual = 0.0190804, Final residual = 0.000685534, No Iterations 4
GAMG:  Solving for p, Initial residual = 0.43368, Final residual = 0.03378, No Iterations 5
time step continuity errors : sum local = 8.45943e-05, global = 2.55631e-18, cumulative = 9.90953e-16
smoothSolver:  Solving for nuTilda, Initial residual = 0.0180602, Final residual = 0.00175209, No Iterations 2
ExecutionTime = 0.91 s  ClockTime = 1 s

Time = 40

smoothSolver:  Solving for Ux, Initial residual = 0.0219215, Final residual = 0.000576706, No Iterations 4
smoothSolver:  Solving for Uy, Initial residual = 0.0182715, Final residual = 0.000621772, No Iterations 4
GAMG:  Solving for p, Initial residual = 0.413935, Final residual = 0.0283377, No Iterations 5
time step continuity errors : sum local = 6.98232e-05, global = 3.78664e-17, cumulative = 1.02882e-15
smoothSolver:  Solving for nuTilda, Initial residual = 0.0183099, Final residual = 0.0017535, No Iterations 2
ExecutionTime = 0.93 s  ClockTime = 1 s

forces airfoil output:
    sum of forces:
        pressure : (-46.5277 505.828 3.36925e-15)
        viscous  : (3.00396 0.362 1.22462e-16)
        porous   : (0 0 0)
    sum of moments:
        pressure : (-12.6457 -1.16319 -4505.67)
        viscous  : (-0.00905 0.0750989 -5.82016)
        porous   : (0 0 0)

Time = 41

smoothSolver:  Solving for Ux, Initial residual = 0.0211336, Final residual = 0.000571475, No Iterations 4
smoothSolver:  Solving for Uy, Initial residual = 0.017785, Final residual = 0.000706105, No Iterations 4
GAMG:  Solving for p, Initial residual = 0.382458, Final residual = 0.0219667, No Iterations 5
time step continuity errors : sum local = 5.26913e-05, global = 2.25398e-17, cumulative = 1.05136e-15
smoothSolver:  Solving for nuTilda, Initial residual = 0.0185382, Final residual = 0.00175012, No Iterations 2
ExecutionTime = 0.95 s  ClockTime = 1 s

Time = 42

smoothSolver:  Solving for Ux, Initial residual = 0.0210245, Final residual = 0.000561896, No Iterations 4
smoothSolver:  Solving for Uy, Initial residual = 0.0172576, Final residual = 0.000822139, No Iterations 4
GAMG:  Solving for p, Initial residual = 0.373425, Final residual = 0.029156, No Iterations 5
time step continuity errors : sum local = 6.88614e-05, global = -7.75431e-18, cumulative = 1.0436e-15
smoothSolver:  Solving for nuTilda, Initial residual = 0.0186754, Final residual = 0.00173781, No Iterations 2
ExecutionTime = 0.97 s  ClockTime = 1 s

Time = 43

smoothSolver:  Solving for Ux, Initial residual = 0.0202394, Final residual = 0.000567788, No Iterations 4
smoothSolver:  Solving for Uy, Initial residual = 0.0162717, Final residual = 0.000768588, No Iterations 4
GAMG:  Solving for p, Initial residual = 0.363612, Final residual = 0.0320406, No Iterations 5
time step continuity errors : sum local = 7.53205e-05, global = 2.28281e-17, cumulative = 1.06643e-15
smoothSolver:  Solving for nuTilda, Initial residual = 0.0188043, Final residual = 0.00172756, No Iterations 2
ExecutionTime = 1 s  ClockTime = 1 s

Time = 44

smoothSolver:  Solving for Ux, Initial residual = 0.0189802, Final residual = 0.000597567, No Iterations 4
smoothSolver:  Solving for Uy, Initial residual = 0.0146528, Final residual = 0.000613899, No Iterations 4
GAMG:  Solving for p, Initial residual = 0.347944, Final residual = 0.0299354, No Iterations 4
time step continuity errors : sum local = 6.81771e-05, global = 2.67663e-17, cumulative = 1.0932e-15
smoothSolver:  Solving for nuTilda, Initial residual = 0.0188706, Final residual = 0.00170825, No Iterations 2
ExecutionTime = 1.02 s  ClockTime = 1 s

Time = 45

smoothSolver:  Solving for Ux, Initial residual = 0.0183048, Final residual = 0.000586784, No Iterations 4
smoothSolver:  Solving for Uy, Initial residual = 0.0141186, Final residual = 0.000547539, No Iterations 4
GAMG:  Solving for p, Initial residual = 0.321895, Final residual = 0.0274833, No Iterations 4
time step continuity errors : sum local = 6.11098e-05, global = 2.2677e-17, cumulative = 1.11588e-15
smoothSolver:  Solving for nuTilda, Initial residual = 0.0188806, Final residual = 0.00169026, No Iterations 2
ExecutionTime = 1.04 s  ClockTime = 1 s

forces airfoil output:
    sum of forces:
        pressure : (-53.7606 521.596 -9.23249e-15)
        viscous  : (3.02287 0.373361 1.48056e-16)
        porous   : (0 0 0)
    sum of moments:
        pressure : (-13.0399 -1.34401 -4788.76)
        viscous  : (-0.00933402 0.0755717 -6.33683)
        porous   : (0 0 0)

Time = 46

smoothSolver:  Solving for Ux, Initial residual = 0.0179655, Final residual = 0.000530009, No Iterations 4
smoothSolver:  Solving for Uy, Initial residual = 0.0138109, Final residual = 0.00054814, No Iterations 4
GAMG:  Solving for p, Initial residual = 0.315938, Final residual = 0.0208764, No Iterations 5
time step continuity errors : sum local = 4.48776e-05, global = 3.85049e-17, cumulative = 1.15438e-15
smoothSolver:  Solving for nuTilda, Initial residual = 0.0188995, Final residual = 0.00166594, No Iterations 2
ExecutionTime = 1.06 s  ClockTime = 1 s

Time = 47

smoothSolver:  Solving for Ux, Initial residual = 0.0174661, Final residual = 0.000474051, No Iterations 4
smoothSolver:  Solving for Uy, Initial residual = 0.0134353, Final residual = 0.000583912, No Iterations 4
GAMG:  Solving for p, Initial residual = 0.308459, Final residual = 0.0207838, No Iterations 5
time step continuity errors : sum local = 4.38973e-05, global = -1.56268e-17, cumulative = 1.13875e-15
smoothSolver:  Solving for nuTilda, Initial residual = 0.018888, Final residual = 0.00163353, No Iterations 2
ExecutionTime = 1.08 s  ClockTime = 1 s

Time = 48

smoothSolver:  Solving for Ux, Initial residual = 0.0174852, Final residual = 0.00171856, No Iterations 2
smoothSolver:  Solving for Uy, Initial residual = 0.0147366, Final residual = 0.000669016, No Iterations 4
GAMG:  Solving for p, Initial residual = 0.292523, Final residual = 0.0207499, No Iterations 5
time step continuity errors : sum local = 4.3324e-05, global = 2.55447e-17, cumulative = 1.1643e-15
smoothSolver:  Solving for nuTilda, Initial residual = 0.0188325, Final residual = 0.00159926, No Iterations 2
ExecutionTime = 1.11 s  ClockTime = 1 s

Time = 49

smoothSolver:  Solving for Ux, Initial residual = 0.0177017, Final residual = 0.000471183, No Iterations 4
smoothSolver:  Solving for Uy, Initial residual = 0.0161478, Final residual = 0.000736472, No Iterations 4
GAMG:  Solving for p, Initial residual = 0.269167, Final residual = 0.0189763, No Iterations 5
time step continuity errors : sum local = 3.9228e-05, global = 1.9657e-17, cumulative = 1.18396e-15
smoothSolver:  Solving for nuTilda, Initial residual = 0.0188059, Final residual = 0.00156484, No Iterations 2
ExecutionTime = 1.13 s  ClockTime = 1 s

Time = 50

smoothSolver:  Solving for Ux, Initial residual = 0.0169456, Final residual = 0.000480782, No Iterations 4
smoothSolver:  Solving for Uy, Initial residual = 0.0157869, Final residual = 0.000697076, No Iterations 4
GAMG:  Solving for p, Initial residual = 0.251212, Final residual = 0.0175516, No Iterations 4
time step continuity errors : sum local = 3.53782e-05, global = 1.14022e-17, cumulative = 1.19536e-15
smoothSolver:  Solving for nuTilda, Initial residual = 0.01874, Final residual = 0.00152499, No Iterations 2
ExecutionTime = 1.19 s  ClockTime = 1 s

forces airfoil output:
    sum of forces:
        pressure : (-54.5365 558.424 -1.06714e-14)
        viscous  : (3.04049 0.381633 1.59842e-16)
        porous   : (0 0 0)
    sum of moments:
        pressure : (-13.9606 -1.36341 -4898.4)
        viscous  : (-0.00954081 0.0760124 -6.82613)
        porous   : (0 0 0)

Time = 51

smoothSolver:  Solving for Ux, Initial residual = 0.0156091, Final residual = 0.000477982, No Iterations 4
smoothSolver:  Solving for Uy, Initial residual = 0.0139087, Final residual = 0.000602992, No Iterations 4
GAMG:  Solving for p, Initial residual = 0.241061, Final residual = 0.0193903, No Iterations 4
time step continuity errors : sum local = 3.8537e-05, global = 3.28471e-18, cumulative = 1.19864e-15
smoothSolver:  Solving for nuTilda, Initial residual = 0.0186439, Final residual = 0.00149025, No Iterations 2
ExecutionTime = 1.21 s  ClockTime = 1 s

Time = 52

smoothSolver:  Solving for Ux, Initial residual = 0.0153176, Final residual = 0.000463421, No Iterations 4
smoothSolver:  Solving for Uy, Initial residual = 0.0121335, Final residual = 0.000533068, No Iterations 4
GAMG:  Solving for p, Initial residual = 0.228359, Final residual = 0.0148361, No Iterations 5
time step continuity errors : sum local = 2.91631e-05, global = 2.49706e-17, cumulative = 1.22361e-15
smoothSolver:  Solving for nuTilda, Initial residual = 0.0185755, Final residual = 0.00145457, No Iterations 2
ExecutionTime = 1.23 s  ClockTime = 1 s

Time = 53

smoothSolver:  Solving for Ux, Initial residual = 0.01649, Final residual = 0.000444832, No Iterations 4
smoothSolver:  Solving for Uy, Initial residual = 0.0110092, Final residual = 0.000465023, No Iterations 4
GAMG:  Solving for p, Initial residual = 0.211582, Final residual = 0.0136566, No Iterations 5
time step continuity errors : sum local = 2.61737e-05, global = 2.66205e-18, cumulative = 1.22628e-15
smoothSolver:  Solving for nuTilda, Initial residual = 0.0184688, Final residual = 0.00141648, No Iterations 2
ExecutionTime = 1.25 s  ClockTime = 1 s

Time = 54

smoothSolver:  Solving for Ux, Initial residual = 0.0168251, Final residual = 0.00160425, No Iterations 2
smoothSolver:  Solving for Uy, Initial residual = 0.0108488, Final residual = 0.000412946, No Iterations 4
GAMG:  Solving for p, Initial residual = 0.200173, Final residual = 0.0131095, No Iterations 4
time step continuity errors : sum local = 2.44062e-05, global = 5.0958e-17, cumulative = 1.27723e-15
smoothSolver:  Solving for nuTilda, Initial residual = 0.0183321, Final residual = 0.00137967, No Iterations 2
ExecutionTime = 1.27 s  ClockTime = 1 s

Time = 55

smoothSolver:  Solving for Ux, Initial residual = 0.0160163, Final residual = 0.00159563, No Iterations 2
smoothSolver:  Solving for Uy, Initial residual = 0.0105449, Final residual = 0.000375777, No Iterations 4
GAMG:  Solving for p, Initial residual = 0.191676, Final residual = 0.0119504, No Iterations 5
time step continuity errors : sum local = 2.22267e-05, global = 5.50716e-17, cumulative = 1.3323e-15
smoothSolver:  Solving for nuTilda, Initial residual = 0.0181794, Final residual = 0.00133869, No Iterations 2
ExecutionTime = 1.29 s  ClockTime = 1 s

forces airfoil output:
    sum of forces:
        pressure : (-58.1 578.245 -1.47532e-14)
        viscous  : (3.04726 0.389772 1.68039e-16)
        porous   : (0 0 0)
    sum of moments:
        pressure : (-14.4561 -1.4525 -5003.2)
        viscous  : (-0.0097443 0.0761815 -7.20825)
        porous   : (0 0 0)

Time = 56

smoothSolver:  Solving for Ux, Initial residual = 0.0147855, Final residual = 0.000436505, No Iterations 4
smoothSolver:  Solving for Uy, Initial residual = 0.0103792, Final residual = 0.000380506, No Iterations 4
GAMG:  Solving for p, Initial residual = 0.183243, Final residual = 0.00959884, No Iterations 5
time step continuity errors : sum local = 1.7605e-05, global = 2.87657e-17, cumulative = 1.36107e-15
smoothSolver:  Solving for nuTilda, Initial residual = 0.0180942, Final residual = 0.00130055, No Iterations 2
ExecutionTime = 1.31 s  ClockTime = 1 s

Time = 57

smoothSolver:  Solving for Ux, Initial residual = 0.0138297, Final residual = 0.000439229, No Iterations 4
smoothSolver:  Solving for Uy, Initial residual = 0.0106034, Final residual = 0.000414554, No Iterations 4
GAMG:  Solving for p, Initial residual = 0.167496, Final residual = 0.0111217, No Iterations 5
time step continuity errors : sum local = 2.04799e-05, global = 4.39551e-17, cumulative = 1.40503e-15
smoothSolver:  Solving for nuTilda, Initial residual = 0.0179289, Final residual = 0.00126564, No Iterations 2
ExecutionTime = 1.34 s  ClockTime = 1 s

Time = 58

smoothSolver:  Solving for Ux, Initial residual = 0.0131742, Final residual = 0.000430476, No Iterations 4
smoothSolver:  Solving for Uy, Initial residual = 0.010432, Final residual = 0.00043954, No Iterations 4
GAMG:  Solving for p, Initial residual = 0.156615, Final residual = 0.0115248, No Iterations 4
time step continuity errors : sum local = 2.07651e-05, global = 2.421e-18, cumulative = 1.40745e-15
smoothSolver:  Solving for nuTilda, Initial residual = 0.0178055, Final residual = 0.00123113, No Iterations 2
ExecutionTime = 1.35 s  ClockTime = 1 s

Time = 59

smoothSolver:  Solving for Ux, Initial residual = 0.012774, Final residual = 0.000417359, No Iterations 4
smoothSolver:  Solving for Uy, Initial residual = 0.00963307, Final residual = 0.000434468, No Iterations 4
GAMG:  Solving for p, Initial residual = 0.149904, Final residual = 0.0111147, No Iterations 4
time step continuity errors : sum local = 1.9919e-05, global = 4.42598e-17, cumulative = 1.45171e-15
smoothSolver:  Solving for nuTilda, Initial residual = 0.0177031, Final residual = 0.00120274, No Iterations 2
ExecutionTime = 1.37 s  ClockTime = 1 s

Time = 60

smoothSolver:  Solving for Ux, Initial residual = 0.0129953, Final residual = 0.000412331, No Iterations 4
smoothSolver:  Solving for Uy, Initial residual = 0.00884554, Final residual = 0.00042182, No Iterations 4
GAMG:  Solving for p, Initial residual = 0.146922, Final residual = 0.00681496, No Iterations 5
time step continuity errors : sum local = 1.21837e-05, global = 3.16038e-17, cumulative = 1.48331e-15
smoothSolver:  Solving for nuTilda, Initial residual = 0.0175867, Final residual = 0.00117709, No Iterations 2
ExecutionTime = 1.4 s  ClockTime = 2 s

forces airfoil output:
    sum of forces:
        pressure : (-62.4877 595.371 -2.10457e-14)
        viscous  : (3.05909 0.396669 1.84189e-16)
        porous   : (0 0 0)
    sum of moments:
        pressure : (-14.8843 -1.56219 -5127.13)
        viscous  : (-0.00991674 0.0764772 -7.54809)
        porous   : (0 0 0)

Time = 61

smoothSolver:  Solving for Ux, Initial residual = 0.0135037, Final residual = 0.000410416, No Iterations 4
smoothSolver:  Solving for Uy, Initial residual = 0.00864082, Final residual = 0.000419085, No Iterations 4
GAMG:  Solving for p, Initial residual = 0.13981, Final residual = 0.0048897, No Iterations 5
time step continuity errors : sum local = 8.72897e-06, global = 1.17017e-17, cumulative = 1.49501e-15
smoothSolver:  Solving for nuTilda, Initial residual = 0.0174572, Final residual = 0.00115732, No Iterations 2
ExecutionTime = 1.42 s  ClockTime = 2 s

Time = 62

smoothSolver:  Solving for Ux, Initial residual = 0.0135912, Final residual = 0.000398676, No Iterations 4
smoothSolver:  Solving for Uy, Initial residual = 0.00892639, Final residual = 0.000435153, No Iterations 4
GAMG:  Solving for p, Initial residual = 0.131118, Final residual = 0.00484563, No Iterations 5
time step continuity errors : sum local = 8.60007e-06, global = 2.20403e-17, cumulative = 1.51705e-15
smoothSolver:  Solving for nuTilda, Initial residual = 0.0173647, Final residual = 0.00114123, No Iterations 2
ExecutionTime = 1.45 s  ClockTime = 2 s

Time = 63

smoothSolver:  Solving for Ux, Initial residual = 0.013027, Final residual = 0.000383187, No Iterations 4
smoothSolver:  Solving for Uy, Initial residual = 0.00911495, Final residual = 0.000446293, No Iterations 4
GAMG:  Solving for p, Initial residual = 0.121241, Final residual = 0.00522186, No Iterations 5
time step continuity errors : sum local = 9.19295e-06, global = 5.28733e-17, cumulative = 1.56993e-15
smoothSolver:  Solving for nuTilda, Initial residual = 0.0173612, Final residual = 0.00112662, No Iterations 2
ExecutionTime = 1.46 s  ClockTime = 2 s

Time = 64

smoothSolver:  Solving for Ux, Initial residual = 0.0120921, Final residual = 0.000364752, No Iterations 4
smoothSolver:  Solving for Uy, Initial residual = 0.00897799, Final residual = 0.000439138, No Iterations 4
GAMG:  Solving for p, Initial residual = 0.113933, Final residual = 0.00465941, No Iterations 5
time step continuity errors : sum local = 8.12279e-06, global = 3.20433e-17, cumulative = 1.60197e-15
smoothSolver:  Solving for nuTilda, Initial residual = 0.0173985, Final residual = 0.00112113, No Iterations 2
ExecutionTime = 1.49 s  ClockTime = 2 s

Time = 65

smoothSolver:  Solving for Ux, Initial residual = 0.0112974, Final residual = 0.000347122, No Iterations 4
smoothSolver:  Solving for Uy, Initial residual = 0.00842143, Final residual = 0.000415311, No Iterations 4
GAMG:  Solving for p, Initial residual = 0.110252, Final residual = 0.00378399, No Iterations 5
time step continuity errors : sum local = 6.55432e-06, global = 1.13329e-17, cumulative = 1.6133e-15
smoothSolver:  Solving for nuTilda, Initial residual = 0.0175946, Final residual = 0.00111378, No Iterations 2
ExecutionTime = 1.51 s  ClockTime = 2 s

forces airfoil output:
    sum of forces:
        pressure : (-65.3465 612.071 -2.43057e-14)
        viscous  : (3.06953 0.403217 1.94514e-16)
        porous   : (0 0 0)
    sum of moments:
        pressure : (-15.3018 -1.63366 -5209.05)
        viscous  : (-0.0100804 0.0767383 -7.83708)
        porous   : (0 0 0)

Time = 66

smoothSolver:  Solving for Ux, Initial residual = 0.0107113, Final residual = 0.000337223, No Iterations 4
smoothSolver:  Solving for Uy, Initial residual = 0.00764536, Final residual = 0.000384281, No Iterations 4
GAMG:  Solving for p, Initial residual = 0.104826, Final residual = 0.00390167, No Iterations 5
time step continuity errors : sum local = 6.7433e-06, global = 3.7917e-17, cumulative = 1.65122e-15
smoothSolver:  Solving for nuTilda, Initial residual = 0.0178466, Final residual = 0.00111441, No Iterations 2
ExecutionTime = 1.53 s  ClockTime = 2 s

Time = 67

smoothSolver:  Solving for Ux, Initial residual = 0.0103093, Final residual = 0.000334476, No Iterations 4
smoothSolver:  Solving for Uy, Initial residual = 0.00711378, Final residual = 0.000380416, No Iterations 4
GAMG:  Solving for p, Initial residual = 0.0982912, Final residual = 0.00399166, No Iterations 5
time step continuity errors : sum local = 6.90068e-06, global = 2.22458e-17, cumulative = 1.67346e-15
smoothSolver:  Solving for nuTilda, Initial residual = 0.0181439, Final residual = 0.00111316, No Iterations 2
ExecutionTime = 1.55 s  ClockTime = 2 s

Time = 68

smoothSolver:  Solving for Ux, Initial residual = 0.0100143, Final residual = 0.000329413, No Iterations 4
smoothSolver:  Solving for Uy, Initial residual = 0.00682821, Final residual = 0.000389731, No Iterations 4
GAMG:  Solving for p, Initial residual = 0.0900437, Final residual = 0.00472276, No Iterations 4
time step continuity errors : sum local = 8.1187e-06, global = 2.66393e-17, cumulative = 1.7001e-15
smoothSolver:  Solving for nuTilda, Initial residual = 0.0185004, Final residual = 0.00110689, No Iterations 2
ExecutionTime = 1.57 s  ClockTime = 2 s

Time = 69

smoothSolver:  Solving for Ux, Initial residual = 0.0096042, Final residual = 0.000312765, No Iterations 4
smoothSolver:  Solving for Uy, Initial residual = 0.00656138, Final residual = 0.00038559, No Iterations 4
GAMG:  Solving for p, Initial residual = 0.0845501, Final residual = 0.00426188, No Iterations 4
time step continuity errors : sum local = 7.2885e-06, global = 7.0883e-18, cumulative = 1.70719e-15
smoothSolver:  Solving for nuTilda, Initial residual = 0.0189275, Final residual = 0.00109908, No Iterations 2
ExecutionTime = 1.59 s  ClockTime = 2 s

Time = 70

smoothSolver:  Solving for Ux, Initial residual = 0.00912944, Final residual = 0.000294354, No Iterations 4
smoothSolver:  Solving for Uy, Initial residual = 0.0062047, Final residual = 0.00036469, No Iterations 4
GAMG:  Solving for p, Initial residual = 0.0818434, Final residual = 0.00424776, No Iterations 4
time step continuity errors : sum local = 7.23465e-06, global = 5.91524e-18, cumulative = 1.71311e-15
smoothSolver:  Solving for nuTilda, Initial residual = 0.0192528, Final residual = 0.00108755, No Iterations 2
ExecutionTime = 1.61 s  ClockTime = 2 s

forces airfoil output:
    sum of forces:
        pressure : (-68.3189 626.037 -2.77354e-14)
        viscous  : (3.07532 0.409332 2.03551e-16)
        porous   : (0 0 0)
    sum of moments:
        pressure : (-15.6509 -1.70797 -5311.8)
        viscous  : (-0.0102333 0.076883 -8.08405)
        porous   : (0 0 0)

Time = 71

smoothSolver:  Solving for Ux, Initial residual = 0.00870475, Final residual = 0.00027755, No Iterations 4
smoothSolver:  Solving for Uy, Initial residual = 0.00575362, Final residual = 0.000335444, No Iterations 4
GAMG:  Solving for p, Initial residual = 0.0780505, Final residual = 0.00464675, No Iterations 4
time step continuity errors : sum local = 7.87042e-06, global = 4.25209e-17, cumulative = 1.75563e-15
smoothSolver:  Solving for nuTilda, Initial residual = 0.0194609, Final residual = 0.00107016, No Iterations 2
ExecutionTime = 1.64 s  ClockTime = 2 s

Time = 72

smoothSolver:  Solving for Ux, Initial residual = 0.00834213, Final residual = 0.000261255, No Iterations 4
smoothSolver:  Solving for Uy, Initial residual = 0.00530239, Final residual = 0.000311377, No Iterations 4
GAMG:  Solving for p, Initial residual = 0.0721528, Final residual = 0.00516492, No Iterations 4
time step continuity errors : sum local = 8.68745e-06, global = 5.16539e-17, cumulative = 1.80728e-15
smoothSolver:  Solving for nuTilda, Initial residual = 0.0195716, Final residual = 0.00105039, No Iterations 2
ExecutionTime = 1.66 s  ClockTime = 2 s

Time = 73

smoothSolver:  Solving for Ux, Initial residual = 0.00800635, Final residual = 0.000250426, No Iterations 4
smoothSolver:  Solving for Uy, Initial residual = 0.0050183, Final residual = 0.000297281, No Iterations 4
GAMG:  Solving for p, Initial residual = 0.0678166, Final residual = 0.0042191, No Iterations 5
time step continuity errors : sum local = 7.08103e-06, global = 2.43077e-17, cumulative = 1.83159e-15
smoothSolver:  Solving for nuTilda, Initial residual = 0.0194664, Final residual = 0.00102864, No Iterations 2
ExecutionTime = 1.67 s  ClockTime = 2 s

Time = 74

smoothSolver:  Solving for Ux, Initial residual = 0.00771885, Final residual = 0.000246265, No Iterations 4
smoothSolver:  Solving for Uy, Initial residual = 0.00478581, Final residual = 0.000292334, No Iterations 4
GAMG:  Solving for p, Initial residual = 0.0644826, Final residual = 0.00313454, No Iterations 5
time step continuity errors : sum local = 5.24789e-06, global = -1.54715e-17, cumulative = 1.81612e-15
smoothSolver:  Solving for nuTilda, Initial residual = 0.0190622, Final residual = 0.00100616, No Iterations 2
ExecutionTime = 1.71 s  ClockTime = 2 s

Time = 75

smoothSolver:  Solving for Ux, Initial residual = 0.00752275, Final residual = 0.000240677, No Iterations 4
smoothSolver:  Solving for Uy, Initial residual = 0.00450267, Final residual = 0.000282037, No Iterations 4
GAMG:  Solving for p, Initial residual = 0.0614984, Final residual = 0.00228786, No Iterations 5
time step continuity errors : sum local = 3.82953e-06, global = 2.74187e-17, cumulative = 1.84354e-15
smoothSolver:  Solving for nuTilda, Initial residual = 0.0184848, Final residual = 0.000983229, No Iterations 2
ExecutionTime = 1.73 s  ClockTime = 2 s

forces airfoil output:
    sum of forces:
        pressure : (-71.0077 640.322 -3.08737e-14)
        viscous  : (3.07844 0.415186 2.12835e-16)
        porous   : (0 0 0)
    sum of moments:
        pressure : (-16.0081 -1.77519 -5394.18)
        viscous  : (-0.0103796 0.076961 -8.29359)
        porous   : (0 0 0)

Time = 76

smoothSolver:  Solving for Ux, Initial residual = 0.00737625, Final residual = 0.000230094, No Iterations 4
smoothSolver:  Solving for Uy, Initial residual = 0.00421329, Final residual = 0.000264117, No Iterations 4
GAMG:  Solving for p, Initial residual = 0.0572956, Final residual = 0.00318855, No Iterations 4
time step continuity errors : sum local = 5.3137e-06, global = 2.74847e-17, cumulative = 1.87102e-15
smoothSolver:  Solving for nuTilda, Initial residual = 0.0177755, Final residual = 0.000962638, No Iterations 2
ExecutionTime = 1.75 s  ClockTime = 2 s

Time = 77

smoothSolver:  Solving for Ux, Initial residual = 0.00732468, Final residual = 0.000217204, No Iterations 4
smoothSolver:  Solving for Uy, Initial residual = 0.00388636, Final residual = 0.000243573, No Iterations 4
GAMG:  Solving for p, Initial residual = 0.05401, Final residual = 0.00311474, No Iterations 4
time step continuity errors : sum local = 5.17913e-06, global = 3.43282e-18, cumulative = 1.87445e-15
smoothSolver:  Solving for nuTilda, Initial residual = 0.0169662, Final residual = 0.000940706, No Iterations 2
ExecutionTime = 1.77 s  ClockTime = 2 s

Time = 78

smoothSolver:  Solving for Ux, Initial residual = 0.0073617, Final residual = 0.000205826, No Iterations 4
smoothSolver:  Solving for Uy, Initial residual = 0.00366744, Final residual = 0.000228426, No Iterations 4
GAMG:  Solving for p, Initial residual = 0.0515073, Final residual = 0.00305703, No Iterations 4
time step continuity errors : sum local = 5.06435e-06, global = 2.84734e-17, cumulative = 1.90293e-15
smoothSolver:  Solving for nuTilda, Initial residual = 0.0160556, Final residual = 0.00092138, No Iterations 2
ExecutionTime = 1.79 s  ClockTime = 2 s

Time = 79

smoothSolver:  Solving for Ux, Initial residual = 0.00728897, Final residual = 0.000725177, No Iterations 2
smoothSolver:  Solving for Uy, Initial residual = 0.00359024, Final residual = 0.000223305, No Iterations 4
GAMG:  Solving for p, Initial residual = 0.050055, Final residual = 0.0034003, No Iterations 4
time step continuity errors : sum local = 5.61539e-06, global = 5.74906e-18, cumulative = 1.90868e-15
smoothSolver:  Solving for nuTilda, Initial residual = 0.0152573, Final residual = 0.000906993, No Iterations 2
ExecutionTime = 1.81 s  ClockTime = 2 s

Time = 80

smoothSolver:  Solving for Ux, Initial residual = 0.00702417, Final residual = 0.000192727, No Iterations 4
smoothSolver:  Solving for Uy, Initial residual = 0.00353548, Final residual = 0.000221238, No Iterations 4
GAMG:  Solving for p, Initial residual = 0.0448506, Final residual = 0.00316035, No Iterations 4
time step continuity errors : sum local = 5.2052e-06, global = 4.81697e-17, cumulative = 1.95685e-15
smoothSolver:  Solving for nuTilda, Initial residual = 0.0145374, Final residual = 0.000894484, No Iterations 2
ExecutionTime = 1.83 s  ClockTime = 2 s

forces airfoil output:
    sum of forces:
        pressure : (-73.6548 652.458 -3.39101e-14)
        viscous  : (3.07922 0.420862 2.20638e-16)
        porous   : (0 0 0)
    sum of moments:
        pressure : (-16.3115 -1.84137 -5472.29)
        viscous  : (-0.0105216 0.0769805 -8.47242)
        porous   : (0 0 0)

Time = 81

smoothSolver:  Solving for Ux, Initial residual = 0.00657247, Final residual = 0.000184491, No Iterations 4
smoothSolver:  Solving for Uy, Initial residual = 0.00349505, Final residual = 0.000222745, No Iterations 4
GAMG:  Solving for p, Initial residual = 0.040398, Final residual = 0.00262163, No Iterations 4
time step continuity errors : sum local = 4.31287e-06, global = -9.87277e-18, cumulative = 1.94697e-15
smoothSolver:  Solving for nuTilda, Initial residual = 0.0139291, Final residual = 0.000884955, No Iterations 2
ExecutionTime = 1.85 s  ClockTime = 2 s

Time = 82

smoothSolver:  Solving for Ux, Initial residual = 0.00605207, Final residual = 0.000173853, No Iterations 4
smoothSolver:  Solving for Uy, Initial residual = 0.00336876, Final residual = 0.000218058, No Iterations 4
GAMG:  Solving for p, Initial residual = 0.0376639, Final residual = 0.00360907, No Iterations 5
time step continuity errors : sum local = 5.93315e-06, global = 4.69945e-17, cumulative = 1.99397e-15
smoothSolver:  Solving for nuTilda, Initial residual = 0.0134581, Final residual = 0.000880927, No Iterations 2
ExecutionTime = 1.87 s  ClockTime = 2 s

Time = 83

smoothSolver:  Solving for Ux, Initial residual = 0.00556042, Final residual = 0.00016137, No Iterations 4
smoothSolver:  Solving for Uy, Initial residual = 0.00312812, Final residual = 0.000205044, No Iterations 4
GAMG:  Solving for p, Initial residual = 0.0345236, Final residual = 0.00193933, No Iterations 4
time step continuity errors : sum local = 3.19235e-06, global = 2.48138e-17, cumulative = 2.01878e-15
smoothSolver:  Solving for nuTilda, Initial residual = 0.0131562, Final residual = 0.000879657, No Iterations 2
ExecutionTime = 1.9 s  ClockTime = 2 s

Time = 84

smoothSolver:  Solving for Ux, Initial residual = 0.00517635, Final residual = 0.000148201, No Iterations 4
smoothSolver:  Solving for Uy, Initial residual = 0.00287698, Final residual = 0.000185883, No Iterations 4
GAMG:  Solving for p, Initial residual = 0.0318095, Final residual = 0.00266782, No Iterations 5
time step continuity errors : sum local = 4.38804e-06, global = 1.21679e-17, cumulative = 2.03095e-15
smoothSolver:  Solving for nuTilda, Initial residual = 0.0129716, Final residual = 0.00087992, No Iterations 2
ExecutionTime = 1.92 s  ClockTime = 2 s

Time = 85

smoothSolver:  Solving for Ux, Initial residual = 0.00486769, Final residual = 0.000135025, No Iterations 4
smoothSolver:  Solving for Uy, Initial residual = 0.00265396, Final residual = 0.000168683, No Iterations 4
GAMG:  Solving for p, Initial residual = 0.0305359, Final residual = 0.0012546, No Iterations 6
time step continuity errors : sum local = 2.07646e-06, global = 3.66164e-17, cumulative = 2.06757e-15
smoothSolver:  Solving for nuTilda, Initial residual = 0.0129518, Final residual = 0.000884342, No Iterations 2
ExecutionTime = 1.94 s  ClockTime = 2 s

forces airfoil output:
    sum of forces:
        pressure : (-76.1311 662.478 -3.6636e-14)
        viscous  : (3.07821 0.42629 2.27269e-16)
        porous   : (0 0 0)
    sum of moments:
        pressure : (-16.5619 -1.90328 -5545.31)
        viscous  : (-0.0106572 0.0769553 -8.63089)
        porous   : (0 0 0)

Time = 86

smoothSolver:  Solving for Ux, Initial residual = 0.00461605, Final residual = 0.000457691, No Iterations 2
smoothSolver:  Solving for Uy, Initial residual = 0.00252784, Final residual = 0.000156545, No Iterations 4
GAMG:  Solving for p, Initial residual = 0.0304137, Final residual = 0.00225692, No Iterations 4
time step continuity errors : sum local = 3.7057e-06, global = 3.74366e-17, cumulative = 2.105e-15
smoothSolver:  Solving for nuTilda, Initial residual = 0.0130862, Final residual = 0.000890045, No Iterations 2
ExecutionTime = 1.96 s  ClockTime = 2 s

Time = 87

smoothSolver:  Solving for Ux, Initial residual = 0.00438648, Final residual = 0.000436403, No Iterations 2
smoothSolver:  Solving for Uy, Initial residual = 0.00240962, Final residual = 0.000145045, No Iterations 4
GAMG:  Solving for p, Initial residual = 0.0282999, Final residual = 0.00257885, No Iterations 4
time step continuity errors : sum local = 4.23554e-06, global = 3.58073e-17, cumulative = 2.14081e-15
smoothSolver:  Solving for nuTilda, Initial residual = 0.0133208, Final residual = 0.000896732, No Iterations 2
ExecutionTime = 1.98 s  ClockTime = 2 s

Time = 88

smoothSolver:  Solving for Ux, Initial residual = 0.00415623, Final residual = 0.000111012, No Iterations 4
smoothSolver:  Solving for Uy, Initial residual = 0.00229622, Final residual = 0.000134777, No Iterations 4
GAMG:  Solving for p, Initial residual = 0.0254311, Final residual = 0.00221591, No Iterations 4
time step continuity errors : sum local = 3.64485e-06, global = 5.07431e-17, cumulative = 2.19155e-15
smoothSolver:  Solving for nuTilda, Initial residual = 0.0136676, Final residual = 0.000906101, No Iterations 2
ExecutionTime = 2 s  ClockTime = 2 s

Time = 89

smoothSolver:  Solving for Ux, Initial residual = 0.00388677, Final residual = 0.000382561, No Iterations 2
smoothSolver:  Solving for Uy, Initial residual = 0.00220527, Final residual = 0.000125925, No Iterations 4
GAMG:  Solving for p, Initial residual = 0.0229968, Final residual = 0.00196193, No Iterations 4
time step continuity errors : sum local = 3.22886e-06, global = 8.83772e-18, cumulative = 2.20039e-15
smoothSolver:  Solving for nuTilda, Initial residual = 0.0141228, Final residual = 0.000914967, No Iterations 2
ExecutionTime = 2.02 s  ClockTime = 2 s

Time = 90

smoothSolver:  Solving for Ux, Initial residual = 0.0036052, Final residual = 0.000352594, No Iterations 2
smoothSolver:  Solving for Uy, Initial residual = 0.00202988, Final residual = 0.000114505, No Iterations 4
GAMG:  Solving for p, Initial residual = 0.021165, Final residual = 0.00174023, No Iterations 4
time step continuity errors : sum local = 2.86437e-06, global = 2.32068e-17, cumulative = 2.2236e-15
smoothSolver:  Solving for nuTilda, Initial residual = 0.0146681, Final residual = 0.000923078, No Iterations 2
ExecutionTime = 2.04 s  ClockTime = 2 s

forces airfoil output:
    sum of forces:
        pressure : (-78.3604 671.685 -3.91489e-14)
        viscous  : (3.07666 0.431515 2.33e-16)
        porous   : (0 0 0)
    sum of moments:
        pressure : (-16.7921 -1.95901 -5613.38)
        viscous  : (-0.0107879 0.0769166 -8.76809)
        porous   : (0 0 0)

Time = 91

smoothSolver:  Solving for Ux, Initial residual = 0.00333528, Final residual = 0.000326118, No Iterations 2
smoothSolver:  Solving for Uy, Initial residual = 0.00179539, Final residual = 9.97746e-05, No Iterations 4
GAMG:  Solving for p, Initial residual = 0.019963, Final residual = 0.000786799, No Iterations 6
time step continuity errors : sum local = 1.28627e-06, global = 1.50692e-17, cumulative = 2.23867e-15
smoothSolver:  Solving for nuTilda, Initial residual = 0.0153098, Final residual = 0.000929736, No Iterations 2
ExecutionTime = 2.07 s  ClockTime = 2 s

Time = 92

smoothSolver:  Solving for Ux, Initial residual = 0.0031074, Final residual = 0.000304296, No Iterations 2
smoothSolver:  Solving for Uy, Initial residual = 0.00157299, Final residual = 8.87801e-05, No Iterations 4
GAMG:  Solving for p, Initial residual = 0.018703, Final residual = 0.000656997, No Iterations 6
time step continuity errors : sum local = 1.073e-06, global = 2.00292e-17, cumulative = 2.2587e-15
smoothSolver:  Solving for nuTilda, Initial residual = 0.0160182, Final residual = 0.000933477, No Iterations 2
ExecutionTime = 2.09 s  ClockTime = 2 s

Time = 93

smoothSolver:  Solving for Ux, Initial residual = 0.00293327, Final residual = 0.000288783, No Iterations 2
smoothSolver:  Solving for Uy, Initial residual = 0.00141752, Final residual = 8.08734e-05, No Iterations 4
GAMG:  Solving for p, Initial residual = 0.0175957, Final residual = 0.00080326, No Iterations 6
time step continuity errors : sum local = 1.3267e-06, global = 4.11828e-17, cumulative = 2.29988e-15
smoothSolver:  Solving for nuTilda, Initial residual = 0.0167522, Final residual = 0.000934524, No Iterations 2
ExecutionTime = 2.11 s  ClockTime = 2 s

Time = 94

smoothSolver:  Solving for Ux, Initial residual = 0.00280305, Final residual = 0.000275601, No Iterations 2
smoothSolver:  Solving for Uy, Initial residual = 0.00129084, Final residual = 7.3352e-05, No Iterations 4
GAMG:  Solving for p, Initial residual = 0.0164976, Final residual = 0.000607632, No Iterations 6
time step continuity errors : sum local = 9.93189e-07, global = 4.29833e-17, cumulative = 2.34286e-15
smoothSolver:  Solving for nuTilda, Initial residual = 0.0175306, Final residual = 0.00093185, No Iterations 2
ExecutionTime = 2.13 s  ClockTime = 2 s

Time = 95

smoothSolver:  Solving for Ux, Initial residual = 0.00269243, Final residual = 0.000265686, No Iterations 2
smoothSolver:  Solving for Uy, Initial residual = 0.00121135, Final residual = 6.59484e-05, No Iterations 4
GAMG:  Solving for p, Initial residual = 0.015395, Final residual = 0.000898475, No Iterations 5
time step continuity errors : sum local = 1.47079e-06, global = 2.96041e-17, cumulative = 2.37247e-15
smoothSolver:  Solving for nuTilda, Initial residual = 0.0183422, Final residual = 0.000926003, No Iterations 2
ExecutionTime = 2.15 s  ClockTime = 2 s

forces airfoil output:
    sum of forces:
        pressure : (-80.3985 679.828 -4.15955e-14)
        viscous  : (3.07469 0.436426 2.38258e-16)
        porous   : (0 0 0)
    sum of moments:
        pressure : (-16.9957 -2.00996 -5675.99)
        viscous  : (-0.0109106 0.0768672 -8.88927)
        porous   : (0 0 0)

Time = 96

smoothSolver:  Solving for Ux, Initial residual = 0.0025934, Final residual = 0.000254226, No Iterations 2
smoothSolver:  Solving for Uy, Initial residual = 0.00113916, Final residual = 5.94843e-05, No Iterations 4
GAMG:  Solving for p, Initial residual = 0.0144217, Final residual = 0.000934544, No Iterations 5
time step continuity errors : sum local = 1.53041e-06, global = 2.75462e-17, cumulative = 2.40001e-15
smoothSolver:  Solving for nuTilda, Initial residual = 0.0191547, Final residual = 0.000917942, No Iterations 2
ExecutionTime = 2.18 s  ClockTime = 2 s

Time = 97

smoothSolver:  Solving for Ux, Initial residual = 0.00249044, Final residual = 0.000241537, No Iterations 2
smoothSolver:  Solving for Uy, Initial residual = 0.00106065, Final residual = 5.44913e-05, No Iterations 4
GAMG:  Solving for p, Initial residual = 0.0136778, Final residual = 0.000919496, No Iterations 5
time step continuity errors : sum local = 1.50572e-06, global = 1.52799e-17, cumulative = 2.41529e-15
smoothSolver:  Solving for nuTilda, Initial residual = 0.0200027, Final residual = 0.000906715, No Iterations 2
ExecutionTime = 2.2 s  ClockTime = 2 s

Time = 98

smoothSolver:  Solving for Ux, Initial residual = 0.00238167, Final residual = 0.000229702, No Iterations 2
smoothSolver:  Solving for Uy, Initial residual = 0.000978159, Final residual = 5.10422e-05, No Iterations 4
GAMG:  Solving for p, Initial residual = 0.0129114, Final residual = 0.00104946, No Iterations 4
time step continuity errors : sum local = 1.72924e-06, global = 5.88732e-18, cumulative = 2.42118e-15
smoothSolver:  Solving for nuTilda, Initial residual = 0.020876, Final residual = 0.000893526, No Iterations 2
ExecutionTime = 2.22 s  ClockTime = 2 s

Time = 99

smoothSolver:  Solving for Ux, Initial residual = 0.00227853, Final residual = 0.000218923, No Iterations 2
smoothSolver:  Solving for Uy, Initial residual = 0.000908755, Final residual = 4.83406e-05, No Iterations 4
GAMG:  Solving for p, Initial residual = 0.0121063, Final residual = 0.00107018, No Iterations 4
time step continuity errors : sum local = 1.76545e-06, global = 5.76286e-18, cumulative = 2.42694e-15
smoothSolver:  Solving for nuTilda, Initial residual = 0.021746, Final residual = 0.00087851, No Iterations 2
ExecutionTime = 2.24 s  ClockTime = 2 s

Time = 100

smoothSolver:  Solving for Ux, Initial residual = 0.0021835, Final residual = 0.000208829, No Iterations 2
smoothSolver:  Solving for Uy, Initial residual = 0.000853883, Final residual = 4.63356e-05, No Iterations 4
GAMG:  Solving for p, Initial residual = 0.0113673, Final residual = 0.000618789, No Iterations 6
time step continuity errors : sum local = 1.01498e-06, global = 2.91344e-17, cumulative = 2.45608e-15
smoothSolver:  Solving for nuTilda, Initial residual = 0.0226341, Final residual = 0.000862204, No Iterations 2
ExecutionTime = 2.3 s  ClockTime = 2 s

forces airfoil output:
    sum of forces:
        pressure : (-82.4719 687.232 -4.38628e-14)
        viscous  : (3.0728 0.440961 2.42974e-16)
        porous   : (0 0 0)
    sum of moments:
        pressure : (-17.1808 -2.0618 -5733.19)
        viscous  : (-0.011024 0.0768201 -8.99759)
        porous   : (0 0 0)

Time = 101

smoothSolver:  Solving for Ux, Initial residual = 0.00210029, Final residual = 0.00020373, No Iterations 2
smoothSolver:  Solving for Uy, Initial residual = 0.000823159, Final residual = 4.42752e-05, No Iterations 4
GAMG:  Solving for p, Initial residual = 0.0104484, Final residual = 0.000797748, No Iterations 6
time step continuity errors : sum local = 1.32837e-06, global = 3.54005e-18, cumulative = 2.45962e-15
smoothSolver:  Solving for nuTilda, Initial residual = 0.0235118, Final residual = 0.000843586, No Iterations 2
ExecutionTime = 2.32 s  ClockTime = 2 s

Time = 102

smoothSolver:  Solving for Ux, Initial residual = 0.0020335, Final residual = 0.000201633, No Iterations 2
smoothSolver:  Solving for Uy, Initial residual = 0.000804591, Final residual = 4.21834e-05, No Iterations 4
GAMG:  Solving for p, Initial residual = 0.00982591, Final residual = 0.000486423, No Iterations 6
time step continuity errors : sum local = 7.9774e-07, global = 4.64418e-17, cumulative = 2.50606e-15
smoothSolver:  Solving for nuTilda, Initial residual = 0.0243772, Final residual = 0.000823178, No Iterations 2
ExecutionTime = 2.34 s  ClockTime = 2 s

Time = 103

smoothSolver:  Solving for Ux, Initial residual = 0.00196987, Final residual = 5.40537e-05, No Iterations 4
smoothSolver:  Solving for Uy, Initial residual = 0.000775484, Final residual = 3.93526e-05, No Iterations 4
GAMG:  Solving for p, Initial residual = 0.00943783, Final residual = 0.000606898, No Iterations 5
time step continuity errors : sum local = 9.92273e-07, global = -5.11701e-18, cumulative = 2.50094e-15
smoothSolver:  Solving for nuTilda, Initial residual = 0.0251277, Final residual = 0.00080107, No Iterations 2
ExecutionTime = 2.37 s  ClockTime = 2 s

Time = 104

smoothSolver:  Solving for Ux, Initial residual = 0.00188798, Final residual = 5.18846e-05, No Iterations 4
smoothSolver:  Solving for Uy, Initial residual = 0.000737179, Final residual = 3.5964e-05, No Iterations 4
GAMG:  Solving for p, Initial residual = 0.00893199, Final residual = 0.000414167, No Iterations 6
time step continuity errors : sum local = 6.78875e-07, global = 2.76806e-17, cumulative = 2.52862e-15
smoothSolver:  Solving for nuTilda, Initial residual = 0.0257285, Final residual = 0.000775863, No Iterations 2
ExecutionTime = 2.39 s  ClockTime = 3 s

Time = 105

smoothSolver:  Solving for Ux, Initial residual = 0.00181072, Final residual = 5.03368e-05, No Iterations 4
smoothSolver:  Solving for Uy, Initial residual = 0.000697287, Final residual = 3.31712e-05, No Iterations 4
GAMG:  Solving for p, Initial residual = 0.00826588, Final residual = 0.000648059, No Iterations 5
time step continuity errors : sum local = 1.05922e-06, global = 2.25552e-17, cumulative = 2.55118e-15
smoothSolver:  Solving for nuTilda, Initial residual = 0.0259359, Final residual = 0.000743778, No Iterations 2
ExecutionTime = 2.41 s  ClockTime = 3 s

forces airfoil output:
    sum of forces:
        pressure : (-84.1944 693.251 -4.59145e-14)
        viscous  : (3.07098 0.445045 2.47202e-16)
        porous   : (0 0 0)
    sum of moments:
        pressure : (-17.3313 -2.10486 -5779.74)
        viscous  : (-0.0111261 0.0767746 -9.09881)
        porous   : (0 0 0)

Time = 106

smoothSolver:  Solving for Ux, Initial residual = 0.00174477, Final residual = 4.9154e-05, No Iterations 4
smoothSolver:  Solving for Uy, Initial residual = 0.00065361, Final residual = 3.12352e-05, No Iterations 4
GAMG:  Solving for p, Initial residual = 0.00796785, Final residual = 0.000656106, No Iterations 5
time step continuity errors : sum local = 1.07326e-06, global = 3.46004e-17, cumulative = 2.58578e-15
smoothSolver:  Solving for nuTilda, Initial residual = 0.0256745, Final residual = 0.000703703, No Iterations 2
ExecutionTime = 2.43 s  ClockTime = 3 s

Time = 107

smoothSolver:  Solving for Ux, Initial residual = 0.00169176, Final residual = 4.86644e-05, No Iterations 4
smoothSolver:  Solving for Uy, Initial residual = 0.000615256, Final residual = 3.00313e-05, No Iterations 4
GAMG:  Solving for p, Initial residual = 0.00768987, Final residual = 0.000662383, No Iterations 5
time step continuity errors : sum local = 1.08468e-06, global = 2.09425e-17, cumulative = 2.60672e-15
smoothSolver:  Solving for nuTilda, Initial residual = 0.0246556, Final residual = 0.00065489, No Iterations 2
ExecutionTime = 2.46 s  ClockTime = 3 s

Time = 108

smoothSolver:  Solving for Ux, Initial residual = 0.00165551, Final residual = 4.87486e-05, No Iterations 4
smoothSolver:  Solving for Uy, Initial residual = 0.00058294, Final residual = 2.98755e-05, No Iterations 4
GAMG:  Solving for p, Initial residual = 0.00738744, Final residual = 0.000447909, No Iterations 6
time step continuity errors : sum local = 7.32391e-07, global = 1.46357e-17, cumulative = 2.62136e-15
smoothSolver:  Solving for nuTilda, Initial residual = 0.0230126, Final residual = 0.000600917, No Iterations 2
ExecutionTime = 2.48 s  ClockTime = 3 s

Time = 109

smoothSolver:  Solving for Ux, Initial residual = 0.00162148, Final residual = 4.91284e-05, No Iterations 4
smoothSolver:  Solving for Uy, Initial residual = 0.000564207, Final residual = 3.01744e-05, No Iterations 4
GAMG:  Solving for p, Initial residual = 0.00700239, Final residual = 0.000551755, No Iterations 5
time step continuity errors : sum local = 9.02943e-07, global = 2.17944e-17, cumulative = 2.64315e-15
smoothSolver:  Solving for nuTilda, Initial residual = 0.0210047, Final residual = 0.000547052, No Iterations 2
ExecutionTime = 2.5 s  ClockTime = 3 s

Time = 110

smoothSolver:  Solving for Ux, Initial residual = 0.00157025, Final residual = 4.83898e-05, No Iterations 4
smoothSolver:  Solving for Uy, Initial residual = 0.000539316, Final residual = 2.91341e-05, No Iterations 4
GAMG:  Solving for p, Initial residual = 0.00658744, Final residual = 0.000519282, No Iterations 5
time step continuity errors : sum local = 8.49339e-07, global = 2.9427e-17, cumulative = 2.67258e-15
smoothSolver:  Solving for nuTilda, Initial residual = 0.0187572, Final residual = 0.000498119, No Iterations 2
ExecutionTime = 2.52 s  ClockTime = 3 s

forces airfoil output:
    sum of forces:
        pressure : (-85.7194 698.486 -4.76063e-14)
        viscous  : (3.06948 0.448617 2.50775e-16)
        porous   : (0 0 0)
    sum of moments:
        pressure : (-17.4622 -2.14299 -5821.54)
        viscous  : (-0.0112154 0.0767369 -9.19504)
        porous   : (0 0 0)

Time = 111

smoothSolver:  Solving for Ux, Initial residual = 0.00151443, Final residual = 4.73381e-05, No Iterations 4
smoothSolver:  Solving for Uy, Initial residual = 0.000518059, Final residual = 2.78777e-05, No Iterations 4
GAMG:  Solving for p, Initial residual = 0.00614449, Final residual = 0.000311596, No Iterations 6
time step continuity errors : sum local = 5.10687e-07, global = 1.48915e-17, cumulative = 2.68747e-15
smoothSolver:  Solving for nuTilda, Initial residual = 0.0164157, Final residual = 0.000454309, No Iterations 2
ExecutionTime = 2.55 s  ClockTime = 3 s

Time = 112

smoothSolver:  Solving for Ux, Initial residual = 0.00146293, Final residual = 4.61371e-05, No Iterations 4
smoothSolver:  Solving for Uy, Initial residual = 0.000509609, Final residual = 2.7118e-05, No Iterations 4
GAMG:  Solving for p, Initial residual = 0.00581869, Final residual = 0.000303918, No Iterations 6
time step continuity errors : sum local = 4.98485e-07, global = 2.65486e-17, cumulative = 2.71402e-15
smoothSolver:  Solving for nuTilda, Initial residual = 0.0142266, Final residual = 0.000416758, No Iterations 2
ExecutionTime = 2.57 s  ClockTime = 3 s

Time = 113

smoothSolver:  Solving for Ux, Initial residual = 0.00141521, Final residual = 4.46546e-05, No Iterations 4
smoothSolver:  Solving for Uy, Initial residual = 0.000499277, Final residual = 2.68878e-05, No Iterations 4
GAMG:  Solving for p, Initial residual = 0.00554831, Final residual = 0.000266174, No Iterations 6
time step continuity errors : sum local = 4.37056e-07, global = 4.6581e-17, cumulative = 2.7606e-15
smoothSolver:  Solving for nuTilda, Initial residual = 0.012178, Final residual = 0.000386884, No Iterations 2
ExecutionTime = 2.59 s  ClockTime = 3 s

Time = 114

smoothSolver:  Solving for Ux, Initial residual = 0.00136951, Final residual = 4.31598e-05, No Iterations 4
smoothSolver:  Solving for Uy, Initial residual = 0.000483344, Final residual = 2.71639e-05, No Iterations 4
GAMG:  Solving for p, Initial residual = 0.00524272, Final residual = 0.000204242, No Iterations 6
time step continuity errors : sum local = 3.35948e-07, global = 1.64896e-17, cumulative = 2.77709e-15
smoothSolver:  Solving for nuTilda, Initial residual = 0.010336, Final residual = 0.000362592, No Iterations 2
ExecutionTime = 2.61 s  ClockTime = 3 s

Time = 115

smoothSolver:  Solving for Ux, Initial residual = 0.00132576, Final residual = 4.17228e-05, No Iterations 4
smoothSolver:  Solving for Uy, Initial residual = 0.000471961, Final residual = 2.73193e-05, No Iterations 4
GAMG:  Solving for p, Initial residual = 0.00486562, Final residual = 0.000275433, No Iterations 5
time step continuity errors : sum local = 4.51282e-07, global = 1.29646e-17, cumulative = 2.79005e-15
smoothSolver:  Solving for nuTilda, Initial residual = 0.00877857, Final residual = 0.000342256, No Iterations 2
ExecutionTime = 2.63 s  ClockTime = 3 s

forces airfoil output:
    sum of forces:
        pressure : (-86.9919 703.014 -4.89948e-14)
        viscous  : (3.06914 0.451541 2.53971e-16)
        porous   : (0 0 0)
    sum of moments:
        pressure : (-17.5754 -2.1748 -5855.33)
        viscous  : (-0.0112885 0.0767284 -9.28638)
        porous   : (0 0 0)

Time = 116

smoothSolver:  Solving for Ux, Initial residual = 0.00128324, Final residual = 4.02633e-05, No Iterations 4
smoothSolver:  Solving for Uy, Initial residual = 0.000464377, Final residual = 2.68615e-05, No Iterations 4
GAMG:  Solving for p, Initial residual = 0.0045221, Final residual = 0.000286036, No Iterations 5
time step continuity errors : sum local = 4.6843e-07, global = 3.15836e-17, cumulative = 2.82164e-15
smoothSolver:  Solving for nuTilda, Initial residual = 0.00742872, Final residual = 0.000325818, No Iterations 2
ExecutionTime = 2.65 s  ClockTime = 3 s

Time = 117

smoothSolver:  Solving for Ux, Initial residual = 0.00124252, Final residual = 3.87634e-05, No Iterations 4
smoothSolver:  Solving for Uy, Initial residual = 0.000461551, Final residual = 2.6185e-05, No Iterations 4
GAMG:  Solving for p, Initial residual = 0.00425685, Final residual = 0.000315156, No Iterations 5
time step continuity errors : sum local = 5.1709e-07, global = 2.2932e-17, cumulative = 2.84457e-15
smoothSolver:  Solving for nuTilda, Initial residual = 0.00631367, Final residual = 0.000312148, No Iterations 2
ExecutionTime = 2.67 s  ClockTime = 3 s

Time = 118

smoothSolver:  Solving for Ux, Initial residual = 0.00120331, Final residual = 3.72076e-05, No Iterations 4
smoothSolver:  Solving for Uy, Initial residual = 0.000457635, Final residual = 2.53925e-05, No Iterations 4
GAMG:  Solving for p, Initial residual = 0.00408617, Final residual = 0.000319918, No Iterations 5
time step continuity errors : sum local = 5.25535e-07, global = 2.80536e-17, cumulative = 2.87262e-15
smoothSolver:  Solving for nuTilda, Initial residual = 0.00544506, Final residual = 0.000300369, No Iterations 2
ExecutionTime = 2.69 s  ClockTime = 3 s

Time = 119

smoothSolver:  Solving for Ux, Initial residual = 0.00116475, Final residual = 3.55975e-05, No Iterations 4
smoothSolver:  Solving for Uy, Initial residual = 0.000452286, Final residual = 2.4656e-05, No Iterations 4
GAMG:  Solving for p, Initial residual = 0.00393822, Final residual = 0.000207891, No Iterations 6
time step continuity errors : sum local = 3.41751e-07, global = 3.77161e-17, cumulative = 2.91034e-15
smoothSolver:  Solving for nuTilda, Initial residual = 0.00473634, Final residual = 0.000290546, No Iterations 2
ExecutionTime = 2.71 s  ClockTime = 3 s

Time = 120

smoothSolver:  Solving for Ux, Initial residual = 0.00112824, Final residual = 3.39514e-05, No Iterations 4
smoothSolver:  Solving for Uy, Initial residual = 0.000447645, Final residual = 2.41152e-05, No Iterations 4
GAMG:  Solving for p, Initial residual = 0.0038015, Final residual = 0.000189002, No Iterations 6
time step continuity errors : sum local = 3.10925e-07, global = 3.56595e-17, cumulative = 2.946e-15
smoothSolver:  Solving for nuTilda, Initial residual = 0.00419224, Final residual = 0.00028235, No Iterations 2
ExecutionTime = 2.73 s  ClockTime = 3 s

forces airfoil output:
    sum of forces:
        pressure : (-87.9999 706.998 -5.00945e-14)
        viscous  : (3.07071 0.453795 2.56979e-16)
        porous   : (0 0 0)
    sum of moments:
        pressure : (-17.6749 -2.2 -5881.74)
        viscous  : (-0.0113449 0.0767676 -9.37195)
        porous   : (0 0 0)

Time = 121

smoothSolver:  Solving for Ux, Initial residual = 0.00109497, Final residual = 3.23419e-05, No Iterations 4
smoothSolver:  Solving for Uy, Initial residual = 0.000441647, Final residual = 2.36951e-05, No Iterations 4
GAMG:  Solving for p, Initial residual = 0.00363589, Final residual = 0.000169294, No Iterations 6
time step continuity errors : sum local = 2.78726e-07, global = 3.51731e-17, cumulative = 2.98117e-15
smoothSolver:  Solving for nuTilda, Initial residual = 0.00377517, Final residual = 0.000275057, No Iterations 2
ExecutionTime = 2.76 s  ClockTime = 3 s

Time = 122

smoothSolver:  Solving for Ux, Initial residual = 0.00106609, Final residual = 3.08413e-05, No Iterations 4
smoothSolver:  Solving for Uy, Initial residual = 0.00043712, Final residual = 2.33437e-05, No Iterations 4
GAMG:  Solving for p, Initial residual = 0.00343775, Final residual = 0.000152322, No Iterations 6
time step continuity errors : sum local = 2.50929e-07, global = 2.02818e-17, cumulative = 3.00145e-15
smoothSolver:  Solving for nuTilda, Initial residual = 0.00345326, Final residual = 0.000268562, No Iterations 2
ExecutionTime = 2.78 s  ClockTime = 3 s

Time = 123

smoothSolver:  Solving for Ux, Initial residual = 0.00104378, Final residual = 0.000104179, No Iterations 2
smoothSolver:  Solving for Uy, Initial residual = 0.000433321, Final residual = 2.29913e-05, No Iterations 4
GAMG:  Solving for p, Initial residual = 0.0032701, Final residual = 0.000225415, No Iterations 5
time step continuity errors : sum local = 3.71048e-07, global = 3.60807e-18, cumulative = 3.00506e-15
[...]
ExecutionTime = 4.09 s  ClockTime = 4 s

Time = 182

smoothSolver:  Solving for Ux, Initial residual = 0.000268577, Final residual = 7.65296e-06, No Iterations 4
smoothSolver:  Solving for Uy, Initial residual = 7.34868e-05, Final residual = 5.59535e-06, No Iterations 4
GAMG:  Solving for p, Initial residual = 0.000470874, Final residual = 3.25668e-05, No Iterations 5
time step continuity errors : sum local = 5.43211e-08, global = 2.3579e-17, cumulative = 4.46911e-15
smoothSolver:  Solving for nuTilda, Initial residual = 0.000645851, Final residual = 3.95637e-05, No Iterations 2
ExecutionTime = 4.12 s  ClockTime = 4 s

Time = 183

smoothSolver:  Solving for Ux, Initial residual = 0.000261636, Final residual = 7.46033e-06, No Iterations 4
smoothSolver:  Solving for Uy, Initial residual = 7.19348e-05, Final residual = 5.44944e-06, No Iterations 4
GAMG:  Solving for p, Initial residual = 0.000459487, Final residual = 3.18781e-05, No Iterations 5
time step continuity errors : sum local = 5.3174e-08, global = 3.31187e-17, cumulative = 4.50223e-15
smoothSolver:  Solving for nuTilda, Initial residual = 0.000626826, Final residual = 3.93076e-05, No Iterations 2
ExecutionTime = 4.14 s  ClockTime = 4 s

Time = 184

smoothSolver:  Solving for Ux, Initial residual = 0.000254977, Final residual = 7.26613e-06, No Iterations 4
smoothSolver:  Solving for Uy, Initial residual = 7.07716e-05, Final residual = 5.32439e-06, No Iterations 4
GAMG:  Solving for p, Initial residual = 0.000444406, Final residual = 3.13155e-05, No Iterations 5
time step continuity errors : sum local = 5.22339e-08, global = 1.23617e-17, cumulative = 4.51459e-15
smoothSolver:  Solving for nuTilda, Initial residual = 0.000608134, Final residual = 3.91256e-05, No Iterations 2
ExecutionTime = 4.16 s  ClockTime = 4 s

Time = 185

smoothSolver:  Solving for Ux, Initial residual = 0.000248308, Final residual = 7.05273e-06, No Iterations 4
smoothSolver:  Solving for Uy, Initial residual = 6.97821e-05, Final residual = 5.19394e-06, No Iterations 4
GAMG:  Solving for p, Initial residual = 0.000428253, Final residual = 3.0373e-05, No Iterations 5
time step continuity errors : sum local = 5.06594e-08, global = 2.66811e-18, cumulative = 4.51726e-15
smoothSolver:  Solving for nuTilda, Initial residual = 0.000589252, Final residual = 3.89678e-05, No Iterations 2
ExecutionTime = 4.18 s  ClockTime = 4 s

forces airfoil output:
    sum of forces:
        pressure : (-93.8929 733.06 -5.69635e-14)
        viscous  : (3.0935 0.464321 2.79985e-16)
        porous   : (0 0 0)
    sum of moments:
        pressure : (-18.3265 -2.34732 -6037.63)
        viscous  : (-0.011608 0.0773374 -9.85766)
        porous   : (0 0 0)

Time = 186

smoothSolver:  Solving for Ux, Initial residual = 0.000241365, Final residual = 6.81977e-06, No Iterations 4
smoothSolver:  Solving for Uy, Initial residual = 6.87222e-05, Final residual = 5.04531e-06, No Iterations 4
GAMG:  Solving for p, Initial residual = 0.00041506, Final residual = 3.13611e-05, No Iterations 5
time step continuity errors : sum local = 5.22949e-08, global = 1.96982e-17, cumulative = 4.53696e-15
smoothSolver:  Solving for nuTilda, Initial residual = 0.000570352, Final residual = 3.89025e-05, No Iterations 2
ExecutionTime = 4.2 s  ClockTime = 4 s

Time = 187

smoothSolver:  Solving for Ux, Initial residual = 0.000234233, Final residual = 6.57974e-06, No Iterations 4
smoothSolver:  Solving for Uy, Initial residual = 6.75314e-05, Final residual = 4.88471e-06, No Iterations 4
GAMG:  Solving for p, Initial residual = 0.000404481, Final residual = 3.27694e-05, No Iterations 5
time step continuity errors : sum local = 5.46277e-08, global = 2.4231e-17, cumulative = 4.56119e-15
smoothSolver:  Solving for nuTilda, Initial residual = 0.000551928, Final residual = 3.88803e-05, No Iterations 2
ExecutionTime = 4.23 s  ClockTime = 4 s

Time = 188

smoothSolver:  Solving for Ux, Initial residual = 0.000227219, Final residual = 6.34291e-06, No Iterations 4
smoothSolver:  Solving for Uy, Initial residual = 6.63251e-05, Final residual = 4.72914e-06, No Iterations 4
GAMG:  Solving for p, Initial residual = 0.000397488, Final residual = 3.26496e-05, No Iterations 5
time step continuity errors : sum local = 5.44226e-08, global = 3.66203e-17, cumulative = 4.59781e-15
smoothSolver:  Solving for nuTilda, Initial residual = 0.000533615, Final residual = 3.88759e-05, No Iterations 2
ExecutionTime = 4.25 s  ClockTime = 4 s

Time = 189

smoothSolver:  Solving for Ux, Initial residual = 0.000220553, Final residual = 6.11258e-06, No Iterations 4
smoothSolver:  Solving for Uy, Initial residual = 6.51966e-05, Final residual = 4.59269e-06, No Iterations 4
GAMG:  Solving for p, Initial residual = 0.000390973, Final residual = 3.11949e-05, No Iterations 5
time step continuity errors : sum local = 5.20014e-08, global = 1.38656e-17, cumulative = 4.61168e-15
smoothSolver:  Solving for nuTilda, Initial residual = 0.000515907, Final residual = 3.8889e-05, No Iterations 2
ExecutionTime = 4.27 s  ClockTime = 4 s

Time = 190

smoothSolver:  Solving for Ux, Initial residual = 0.000214269, Final residual = 5.88928e-06, No Iterations 4
smoothSolver:  Solving for Uy, Initial residual = 6.41593e-05, Final residual = 4.47624e-06, No Iterations 4
GAMG:  Solving for p, Initial residual = 0.00038188, Final residual = 2.94774e-05, No Iterations 5
time step continuity errors : sum local = 4.91406e-08, global = 1.88886e-17, cumulative = 4.63056e-15
smoothSolver:  Solving for nuTilda, Initial residual = 0.000498511, Final residual = 3.88549e-05, No Iterations 2
ExecutionTime = 4.29 s  ClockTime = 4 s

forces airfoil output:
    sum of forces:
        pressure : (-94.0969 733.835 -5.71949e-14)
        viscous  : (3.09353 0.464744 2.80585e-16)
        porous   : (0 0 0)
    sum of moments:
        pressure : (-18.3459 -2.35242 -6043.01)
        viscous  : (-0.0116186 0.0773383 -9.87156)
        porous   : (0 0 0)

Time = 191

smoothSolver:  Solving for Ux, Initial residual = 0.000208245, Final residual = 2.06977e-05, No Iterations 2
smoothSolver:  Solving for Uy, Initial residual = 6.32168e-05, Final residual = 4.36966e-06, No Iterations 4
GAMG:  Solving for p, Initial residual = 0.000388947, Final residual = 2.70376e-05, No Iterations 5
time step continuity errors : sum local = 4.5023e-08, global = 5.13366e-17, cumulative = 4.6819e-15
smoothSolver:  Solving for nuTilda, Initial residual = 0.000481341, Final residual = 3.8737e-05, No Iterations 2
ExecutionTime = 4.32 s  ClockTime = 4 s

Time = 192

smoothSolver:  Solving for Ux, Initial residual = 0.000203304, Final residual = 2.02983e-05, No Iterations 2
smoothSolver:  Solving for Uy, Initial residual = 6.21912e-05, Final residual = 4.21825e-06, No Iterations 4
GAMG:  Solving for p, Initial residual = 0.000371445, Final residual = 2.48575e-05, No Iterations 5
time step continuity errors : sum local = 4.13856e-08, global = 3.04819e-17, cumulative = 4.71238e-15
smoothSolver:  Solving for nuTilda, Initial residual = 0.000464525, Final residual = 3.85666e-05, No Iterations 2
ExecutionTime = 4.33 s  ClockTime = 4 s

Time = 193

smoothSolver:  Solving for Ux, Initial residual = 0.000198439, Final residual = 5.40754e-06, No Iterations 4
smoothSolver:  Solving for Uy, Initial residual = 6.13191e-05, Final residual = 4.06295e-06, No Iterations 4
GAMG:  Solving for p, Initial residual = 0.00037458, Final residual = 2.66033e-05, No Iterations 5
time step continuity errors : sum local = 4.43608e-08, global = 4.0798e-17, cumulative = 4.75318e-15
smoothSolver:  Solving for nuTilda, Initial residual = 0.000449026, Final residual = 3.84189e-05, No Iterations 2
ExecutionTime = 4.36 s  ClockTime = 4 s

Time = 194

smoothSolver:  Solving for Ux, Initial residual = 0.000192153, Final residual = 1.90577e-05, No Iterations 2
smoothSolver:  Solving for Uy, Initial residual = 6.06007e-05, Final residual = 3.99367e-06, No Iterations 4
GAMG:  Solving for p, Initial residual = 0.000353592, Final residual = 1.70935e-05, No Iterations 8
time step continuity errors : sum local = 2.87404e-08, global = 3.62579e-17, cumulative = 4.78944e-15
smoothSolver:  Solving for nuTilda, Initial residual = 0.000433393, Final residual = 3.81723e-05, No Iterations 2
ExecutionTime = 4.38 s  ClockTime = 5 s

Time = 195

smoothSolver:  Solving for Ux, Initial residual = 0.000186546, Final residual = 1.85021e-05, No Iterations 2
smoothSolver:  Solving for Uy, Initial residual = 5.99385e-05, Final residual = 3.95056e-06, No Iterations 4
GAMG:  Solving for p, Initial residual = 0.000335223, Final residual = 3.28864e-05, No Iterations 5
time step continuity errors : sum local = 5.47996e-08, global = 2.04624e-17, cumulative = 4.8099e-15
smoothSolver:  Solving for nuTilda, Initial residual = 0.000418651, Final residual = 3.78932e-05, No Iterations 2
ExecutionTime = 4.4 s  ClockTime = 5 s

forces airfoil output:
    sum of forces:
        pressure : (-94.2716 734.518 -5.73902e-14)
        viscous  : (3.09371 0.465114 2.81103e-16)
        porous   : (0 0 0)
    sum of moments:
        pressure : (-18.363 -2.35679 -6047.71)
        viscous  : (-0.0116279 0.0773428 -9.88389)
        porous   : (0 0 0)

Time = 196

smoothSolver:  Solving for Ux, Initial residual = 0.000181458, Final residual = 1.79538e-05, No Iterations 2
smoothSolver:  Solving for Uy, Initial residual = 5.88899e-05, Final residual = 3.85303e-06, No Iterations 4
GAMG:  Solving for p, Initial residual = 0.000327377, Final residual = 1.50338e-05, No Iterations 8
time step continuity errors : sum local = 2.53181e-08, global = 6.28077e-18, cumulative = 4.81618e-15
smoothSolver:  Solving for nuTilda, Initial residual = 0.000404419, Final residual = 3.75816e-05, No Iterations 2
ExecutionTime = 4.42 s  ClockTime = 5 s

Time = 197

smoothSolver:  Solving for Ux, Initial residual = 0.000176734, Final residual = 1.74468e-05, No Iterations 2
smoothSolver:  Solving for Uy, Initial residual = 5.8144e-05, Final residual = 3.7858e-06, No Iterations 4
GAMG:  Solving for p, Initial residual = 0.000316404, Final residual = 2.26385e-05, No Iterations 5
time step continuity errors : sum local = 3.77683e-08, global = 2.21623e-17, cumulative = 4.83834e-15
smoothSolver:  Solving for nuTilda, Initial residual = 0.000391064, Final residual = 3.72775e-05, No Iterations 2
ExecutionTime = 4.45 s  ClockTime = 5 s

Time = 198

smoothSolver:  Solving for Ux, Initial residual = 0.000172081, Final residual = 1.6932e-05, No Iterations 2
smoothSolver:  Solving for Uy, Initial residual = 5.73595e-05, Final residual = 3.70396e-06, No Iterations 4
GAMG:  Solving for p, Initial residual = 0.000313921, Final residual = 2.16667e-05, No Iterations 5
time step continuity errors : sum local = 3.61462e-08, global = 2.3309e-17, cumulative = 4.86165e-15
smoothSolver:  Solving for nuTilda, Initial residual = 0.000378399, Final residual = 3.69343e-05, No Iterations 2
ExecutionTime = 4.47 s  ClockTime = 5 s

Time = 199

smoothSolver:  Solving for Ux, Initial residual = 0.000167453, Final residual = 1.64517e-05, No Iterations 2
smoothSolver:  Solving for Uy, Initial residual = 5.66341e-05, Final residual = 3.6453e-06, No Iterations 4
GAMG:  Solving for p, Initial residual = 0.000311052, Final residual = 2.2375e-05, No Iterations 5
time step continuity errors : sum local = 3.73036e-08, global = 1.04374e-17, cumulative = 4.87209e-15
smoothSolver:  Solving for nuTilda, Initial residual = 0.000366485, Final residual = 3.6565e-05, No Iterations 2
ExecutionTime = 4.49 s  ClockTime = 5 s

Time = 200

smoothSolver:  Solving for Ux, Initial residual = 0.000163021, Final residual = 1.60085e-05, No Iterations 2
smoothSolver:  Solving for Uy, Initial residual = 5.59384e-05, Final residual = 3.60578e-06, No Iterations 4
GAMG:  Solving for p, Initial residual = 0.000304973, Final residual = 2.37095e-05, No Iterations 5
time step continuity errors : sum local = 3.94997e-08, global = 2.0361e-17, cumulative = 4.89245e-15
smoothSolver:  Solving for nuTilda, Initial residual = 0.000354526, Final residual = 1.08593e-05, No Iterations 4
ExecutionTime = 4.55 s  ClockTime = 5 s

forces airfoil output:
    sum of forces:
        pressure : (-94.4246 735.116 -5.75631e-14)
        viscous  : (3.09404 0.465433 2.81584e-16)
        porous   : (0 0 0)
    sum of moments:
        pressure : (-18.3779 -2.36061 -6051.72)
        viscous  : (-0.0116358 0.0773509 -9.895)
        porous   : (0 0 0)

Time = 201

smoothSolver:  Solving for Ux, Initial residual = 0.000158869, Final residual = 1.558e-05, No Iterations 2
smoothSolver:  Solving for Uy, Initial residual = 5.51969e-05, Final residual = 3.57405e-06, No Iterations 4
GAMG:  Solving for p, Initial residual = 0.000296843, Final residual = 1.48089e-05, No Iterations 8
time step continuity errors : sum local = 2.48664e-08, global = 4.20474e-18, cumulative = 4.89666e-15
smoothSolver:  Solving for nuTilda, Initial residual = 0.000342444, Final residual = 1.065e-05, No Iterations 4
ExecutionTime = 4.58 s  ClockTime = 5 s

Time = 202

smoothSolver:  Solving for Ux, Initial residual = 0.000154905, Final residual = 1.51469e-05, No Iterations 2
smoothSolver:  Solving for Uy, Initial residual = 5.45062e-05, Final residual = 3.54624e-06, No Iterations 4
GAMG:  Solving for p, Initial residual = 0.000284957, Final residual = 2.08006e-05, No Iterations 5
time step continuity errors : sum local = 3.46832e-08, global = 4.18852e-17, cumulative = 4.93854e-15
smoothSolver:  Solving for nuTilda, Initial residual = 0.000331898, Final residual = 1.04239e-05, No Iterations 4
ExecutionTime = 4.6 s  ClockTime = 5 s

Time = 203

smoothSolver:  Solving for Ux, Initial residual = 0.000151039, Final residual = 1.47154e-05, No Iterations 2
smoothSolver:  Solving for Uy, Initial residual = 5.36582e-05, Final residual = 3.49169e-06, No Iterations 4
GAMG:  Solving for p, Initial residual = 0.000277695, Final residual = 2.01811e-05, No Iterations 5
time step continuity errors : sum local = 3.36386e-08, global = 1.98831e-17, cumulative = 4.95843e-15
smoothSolver:  Solving for nuTilda, Initial residual = 0.000321376, Final residual = 1.01842e-05, No Iterations 4
ExecutionTime = 4.62 s  ClockTime = 5 s

Time = 204

smoothSolver:  Solving for Ux, Initial residual = 0.000147311, Final residual = 1.4319e-05, No Iterations 2
smoothSolver:  Solving for Uy, Initial residual = 5.27088e-05, Final residual = 3.43461e-06, No Iterations 4
GAMG:  Solving for p, Initial residual = 0.000274104, Final residual = 2.02804e-05, No Iterations 5
time step continuity errors : sum local = 3.3787e-08, global = 2.48271e-17, cumulative = 4.98325e-15
smoothSolver:  Solving for nuTilda, Initial residual = 0.000311004, Final residual = 9.92806e-06, No Iterations 4
ExecutionTime = 4.64 s  ClockTime = 5 s

Time = 205

smoothSolver:  Solving for Ux, Initial residual = 0.000143806, Final residual = 1.3964e-05, No Iterations 2
smoothSolver:  Solving for Uy, Initial residual = 5.17556e-05, Final residual = 3.38427e-06, No Iterations 4
GAMG:  Solving for p, Initial residual = 0.000269757, Final residual = 2.03582e-05, No Iterations 5
time step continuity errors : sum local = 3.39421e-08, global = 7.58171e-18, cumulative = 4.99083e-15
smoothSolver:  Solving for nuTilda, Initial residual = 0.000301063, Final residual = 9.655e-06, No Iterations 4
ExecutionTime = 4.66 s  ClockTime = 5 s

forces airfoil output:
    sum of forces:
        pressure : (-94.5566 735.645 -5.77134e-14)
        viscous  : (3.09446 0.4657 2.82024e-16)
        porous   : (0 0 0)
    sum of moments:
        pressure : (-18.3911 -2.36392 -6055.21)
        viscous  : (-0.0116425 0.0773615 -9.9051)
        porous   : (0 0 0)

Time = 206

smoothSolver:  Solving for Ux, Initial residual = 0.00014052, Final residual = 1.36375e-05, No Iterations 2
smoothSolver:  Solving for Uy, Initial residual = 5.08489e-05, Final residual = 3.34182e-06, No Iterations 4
GAMG:  Solving for p, Initial residual = 0.000263884, Final residual = 2.34016e-05, No Iterations 7
time step continuity errors : sum local = 3.90751e-08, global = 3.45334e-17, cumulative = 5.02537e-15
smoothSolver:  Solving for nuTilda, Initial residual = 0.000291591, Final residual = 9.36401e-06, No Iterations 4
ExecutionTime = 4.69 s  ClockTime = 5 s

Time = 207

smoothSolver:  Solving for Ux, Initial residual = 0.000137368, Final residual = 1.33213e-05, No Iterations 2
smoothSolver:  Solving for Uy, Initial residual = 5.004e-05, Final residual = 3.31056e-06, No Iterations 4
GAMG:  Solving for p, Initial residual = 0.000257752, Final residual = 1.77779e-05, No Iterations 5
time step continuity errors : sum local = 2.96202e-08, global = -8.23854e-18, cumulative = 5.01713e-15
smoothSolver:  Solving for nuTilda, Initial residual = 0.000282807, Final residual = 9.05857e-06, No Iterations 4
ExecutionTime = 4.71 s  ClockTime = 5 s

Time = 208

smoothSolver:  Solving for Ux, Initial residual = 0.000134241, Final residual = 1.30074e-05, No Iterations 2
smoothSolver:  Solving for Uy, Initial residual = 4.91239e-05, Final residual = 3.25774e-06, No Iterations 4
GAMG:  Solving for p, Initial residual = 0.000250762, Final residual = 1.77379e-05, No Iterations 5
time step continuity errors : sum local = 2.95743e-08, global = 3.78322e-17, cumulative = 5.05496e-15
smoothSolver:  Solving for nuTilda, Initial residual = 0.000274432, Final residual = 8.73716e-06, No Iterations 4
ExecutionTime = 4.73 s  ClockTime = 5 s

Time = 209

smoothSolver:  Solving for Ux, Initial residual = 0.000131183, Final residual = 1.27065e-05, No Iterations 2
smoothSolver:  Solving for Uy, Initial residual = 4.81376e-05, Final residual = 3.20064e-06, No Iterations 4
GAMG:  Solving for p, Initial residual = 0.00024509, Final residual = 2.41589e-05, No Iterations 5
time step continuity errors : sum local = 4.02957e-08, global = 2.91034e-17, cumulative = 5.08406e-15
smoothSolver:  Solving for nuTilda, Initial residual = 0.000266452, Final residual = 8.40366e-06, No Iterations 4
ExecutionTime = 4.75 s  ClockTime = 5 s

Time = 210

smoothSolver:  Solving for Ux, Initial residual = 0.00012819, Final residual = 1.24068e-05, No Iterations 2
smoothSolver:  Solving for Uy, Initial residual = 4.70845e-05, Final residual = 3.13746e-06, No Iterations 4
GAMG:  Solving for p, Initial residual = 0.000241676, Final residual = 2.21939e-05, No Iterations 7
time step continuity errors : sum local = 3.70405e-08, global = -1.46446e-18, cumulative = 5.0826e-15
smoothSolver:  Solving for nuTilda, Initial residual = 0.000258595, Final residual = 8.0605e-06, No Iterations 4
ExecutionTime = 4.77 s  ClockTime = 5 s

forces airfoil output:
    sum of forces:
        pressure : (-94.6704 736.119 -5.7844e-14)
        viscous  : (3.09491 0.465923 2.82434e-16)
        porous   : (0 0 0)
    sum of moments:
        pressure : (-18.403 -2.36676 -6058.14)
        viscous  : (-0.0116481 0.0773728 -9.91422)
        porous   : (0 0 0)

Time = 211

smoothSolver:  Solving for Ux, Initial residual = 0.000125439, Final residual = 1.2147e-05, No Iterations 2
smoothSolver:  Solving for Uy, Initial residual = 4.61098e-05, Final residual = 3.09737e-06, No Iterations 4
GAMG:  Solving for p, Initial residual = 0.000234592, Final residual = 2.2592e-05, No Iterations 5
time step continuity errors : sum local = 3.76758e-08, global = 4.08157e-17, cumulative = 5.12342e-15
smoothSolver:  Solving for nuTilda, Initial residual = 0.000251128, Final residual = 7.711e-06, No Iterations 4
ExecutionTime = 4.79 s  ClockTime = 5 s

Time = 212

smoothSolver:  Solving for Ux, Initial residual = 0.000122695, Final residual = 1.18768e-05, No Iterations 2
smoothSolver:  Solving for Uy, Initial residual = 4.50839e-05, Final residual = 3.03641e-06, No Iterations 4
GAMG:  Solving for p, Initial residual = 0.000229605, Final residual = 2.24822e-05, No Iterations 5
time step continuity errors : sum local = 3.75068e-08, global = 2.55071e-17, cumulative = 5.14892e-15
